
 Fire Dynamics Simulator

 Current Date     : October 23, 2021  12:27:06
 Revision         : -
 Revision Date    : 
 Compiler         : Gnu gfortran GCC
 Compilation Date : Oct 22, 2021  14:18:40

 MPI Enabled;    Number of MPI Processes:      64
 OpenMP Disabled

 MPI version: 3.1
 MPI library version: Open MPI v4.1.1, package: Open MPI brew@BigSur Distribution, ident: 4.1.1, repo rev: v4.1.1, Apr 24, 2021

 Job TITLE        : FM 15 cm ethylene burner
 Job ID string    : default_fds


 Miscellaneous Parameters

   Simulation Start Time (s)          0.0
   Simulation End Time (s)           20.0
   LES Calculation
   Eddy Viscosity:           Deardorff Model (C_DEARDORFF = 0.10)
   Near-wall Eddy Viscosity: WALE Model (C_WALE = 0.60)
   Turbulent Prandtl Number:         0.50
   Turbulent Schmidt Number:         0.50
   Background Pressure (Pa):    101325.00
   Ambient Temperature (C):         20.00


 Mass Fraction Transformation Matrix to Convert Species Mixtures (Columns) to Primitive Species (Rows)

                         AIR       ETHYLENE  PRODUCTS  INTERMED
   ETHYLENE              0.000000  1.000000  0.000000  0.000000
   NITROGEN              0.762470  0.000000  0.712559  0.675736
   OXYGEN                0.230997  0.000000  0.000000  0.000000
   CARBON DIOXIDE        0.000591  0.000000  0.194381  0.000524
   WATER VAPOR           0.005941  0.000000  0.089394  0.148120
   CARBON MONOXIDE       0.000000  0.000000  0.000851  0.136294
   SOOT                  0.000000  0.000000  0.002815  0.039325
   HYDROGEN              0.000000  0.000000  0.000000  0.000000
   HYDROGEN CYANIDE      0.000000  0.000000  0.000000  0.000000


 Primitive Species Information

   ETHYLENE
   Gas Species
   Molecular Weight (g/mol)            28.05316
   Ambient Density (kg/m^3)            1.166
   Enthalpy of Formation (J/kg)        1.87E+06

   NITROGEN
   Gas Species
   Molecular Weight (g/mol)            28.01340
   Ambient Density (kg/m^3)            1.165
   Enthalpy of Formation (J/kg)        0.00E+00

   OXYGEN
   Gas Species
   Molecular Weight (g/mol)            31.99880
   Ambient Density (kg/m^3)            1.330
   Enthalpy of Formation (J/kg)        0.00E+00

   CARBON DIOXIDE
   Gas Species
   Molecular Weight (g/mol)            44.00950
   Ambient Density (kg/m^3)            1.830
   Enthalpy of Formation (J/kg)       -8.94E+06

   WATER VAPOR
   Gas Species
   Molecular Weight (g/mol)            18.01528
   Ambient Density (kg/m^3)            0.749
   Enthalpy of Formation (J/kg)       -1.34E+07

   CARBON MONOXIDE
   Gas Species
   Molecular Weight (g/mol)            28.01010
   Ambient Density (kg/m^3)            1.164
   Enthalpy of Formation (J/kg)       -3.95E+06

   SOOT
   Gas Species
   Molecular Weight (g/mol)            10.91042
   Ambient Density (kg/m^3)            0.454
   Enthalpy of Formation (J/kg)        0.00E+00

   HYDROGEN
   Gas Species
   Molecular Weight (g/mol)             2.01588
   Ambient Density (kg/m^3)            0.084
   Enthalpy of Formation (J/kg)        0.00E+00

   HYDROGEN CYANIDE
   Gas Species
   Molecular Weight (g/mol)            27.02534
   Ambient Density (kg/m^3)            1.123
   Enthalpy of Formation (J/kg)        4.92E+06


 Tracked (Lumped) Species Information

   AIR
   Molecular Weight (g/mol)            28.75198
   Ambient Density (kg/m^3)            1.195
   Initial Mass Fraction               1.000
   Enthalpy of Formation (J/kg)     -8.50E+04

   Sub Species                    Mass Fraction     Mole Fraction
   NITROGEN                       7.624699E-01      7.825727E-01
   OXYGEN                         2.309974E-01      2.075588E-01
   CARBON DIOXIDE                 5.914650E-04      3.864118E-04
   WATER VAPOR                    5.941209E-03      9.482037E-03
 
     Viscosity (kg/m/s) Ambient,  293 K:  1.80E-05
                                  500 K:  2.61E-05
                                 1000 K:  4.13E-05
                                 1500 K:  5.37E-05
   Therm. Cond. (W/m/K) Ambient,  293 K:  2.56E-02
                                  500 K:  3.81E-02
                                 1000 K:  6.69E-02
                                 1500 K:  9.25E-02
        Enthalpy (J/kg) Ambient,  293 K: -9.01E+04
                                  500 K:  1.22E+05
                                 1000 K:  6.72E+05
                                 1500 K:  1.27E+06
    Spec. Heat (J/kg/K) Ambient,  293 K:  1.02E+03
                                  500 K:  1.04E+03
                                 1000 K:  1.16E+03
                                 1500 K:  1.23E+03
   Diff. Coeff. (m^2/s) Ambient,  293 K:  1.99E-05
                                  500 K:  4.96E-05
                                 1000 K:  1.58E-04
                                 1500 K:  3.09E-04

   ETHYLENE
   Molecular Weight (g/mol)            28.05316
   Ambient Density (kg/m^3)            1.166
   Initial Mass Fraction               0.000
   Enthalpy of Formation (J/kg)      1.87E+06

   Sub Species                    Mass Fraction     Mole Fraction
   ETHYLENE                       1.000000E+00      1.000000E+00
 
     Viscosity (kg/m/s) Ambient,  293 K:  9.99E-06
                                  500 K:  1.61E-05
                                 1000 K:  2.72E-05
                                 1500 K:  3.60E-05
   Therm. Cond. (W/m/K) Ambient,  293 K:  1.82E-02
                                  500 K:  4.31E-02
                                 1000 K:  1.10E-01
                                 1500 K:  1.70E-01
        Enthalpy (J/kg) Ambient,  293 K:  1.86E+06
                                  500 K:  2.25E+06
                                 1000 K:  3.68E+06
                                 1500 K:  5.51E+06
    Spec. Heat (J/kg/K) Ambient,  293 K:  1.51E+03
                                  500 K:  2.23E+03
                                 1000 K:  3.35E+03
                                 1500 K:  3.92E+03
   Diff. Coeff. (m^2/s) Ambient,  293 K:  1.55E-05
                                  500 K:  3.99E-05
                                 1000 K:  1.30E-04
                                 1500 K:  2.55E-04

   PRODUCTS
   Molecular Weight (g/mol)            28.48706
   Ambient Density (kg/m^3)            1.184
   Initial Mass Fraction               0.000
   Enthalpy of Formation (J/kg)     -2.94E+06

   Sub Species                    Mass Fraction     Mole Fraction
   NITROGEN                       7.125591E-01      7.246074E-01
   CARBON DIOXIDE                 1.943813E-01      1.258218E-01
   WATER VAPOR                    8.939387E-02      1.413561E-01
   CARBON MONOXIDE                8.509727E-04      8.654633E-04
   SOOT                           2.814756E-03      7.349314E-03
   HYDROGEN CYANIDE               0.000000E+00      0.000000E+00
 
     Viscosity (kg/m/s) Ambient,  293 K:  1.62E-05
                                  500 K:  2.40E-05
                                 1000 K:  3.89E-05
                                 1500 K:  5.14E-05
   Therm. Cond. (W/m/K) Ambient,  293 K:  2.34E-02
                                  500 K:  3.62E-02
                                 1000 K:  6.69E-02
                                 1500 K:  9.56E-02
        Enthalpy (J/kg) Ambient,  293 K: -2.95E+06
                                  500 K: -2.72E+06
                                 1000 K: -2.12E+06
                                 1500 K: -1.45E+06
    Spec. Heat (J/kg/K) Ambient,  293 K:  1.07E+03
                                  500 K:  1.13E+03
                                 1000 K:  1.28E+03
                                 1500 K:  1.39E+03
   Diff. Coeff. (m^2/s) Ambient,  293 K:  1.95E-05
                                  500 K:  4.93E-05
                                 1000 K:  1.59E-04
                                 1500 K:  3.13E-04

   INTERMEDIATE PRODUCTS
   Molecular Weight (g/mol)            24.49421
   Ambient Density (kg/m^3)            1.018
   Initial Mass Fraction               0.000
   Enthalpy of Formation (J/kg)     -2.53E+06

   Sub Species                    Mass Fraction     Mole Fraction
   NITROGEN                       6.757365E-01      5.908468E-01
   CARBON DIOXIDE                 5.241839E-04      2.917431E-04
   WATER VAPOR                    1.481197E-01      2.013887E-01
   CARBON MONOXIDE                1.362944E-01      1.191864E-01
   SOOT                           3.932523E-02      8.828625E-02
   HYDROGEN                       0.000000E+00      0.000000E+00
   HYDROGEN CYANIDE               0.000000E+00      0.000000E+00
 
     Viscosity (kg/m/s) Ambient,  293 K:  1.58E-05
                                  500 K:  2.33E-05
                                 1000 K:  3.81E-05
                                 1500 K:  5.05E-05
   Therm. Cond. (W/m/K) Ambient,  293 K:  2.37E-02
                                  500 K:  3.69E-02
                                 1000 K:  6.94E-02
                                 1500 K:  1.00E-01
        Enthalpy (J/kg) Ambient,  293 K: -2.54E+06
                                  500 K: -2.29E+06
                                 1000 K: -1.65E+06
                                 1500 K: -9.42E+05
    Spec. Heat (J/kg/K) Ambient,  293 K:  1.15E+03
                                  500 K:  1.20E+03
                                 1000 K:  1.36E+03
                                 1500 K:  1.48E+03
   Diff. Coeff. (m^2/s) Ambient,  293 K:  2.07E-05
                                  500 K:  5.25E-05
                                 1000 K:  1.70E-04
                                 1500 K:  3.34E-04


 Gas Phase Reaction Information

   Fuel                                           Heat of Combustion (kJ/kg)
   ETHYLENE                                                       23456.0532

   Stoichiometry

   Primitive Species Stoich. Coeff.
   Species ID                                                          Molar
   ETHYLENE                                                        -1.000000
   OXYGEN                                                          -1.577778
   WATER VAPOR                                                      1.955556
   CARBON MONOXIDE                                                  1.200000
   SOOT                                                             0.888889

   Tracked (Lumped) Species Stoich. Coeff.
   Species ID                                             Molar         Mass
   AIR                                                -7.601593    -7.790954
   ETHYLENE                                           -1.000000    -1.000000
   INTERMEDIATE PRODUCTS                              10.068260     8.790954

   Reaction Kinetics

   Arrhenius Parameters
   Pre-exponential:    Infinite
   Activation Energy:  N/A

   ODE Solver:  EXPLICIT EULER
   Extinction Model:  EXTINCTION 2
   Auto-Ignition Temperature (K):       0.0
   Critical Flame Temperature (K):   1610.2

   Fuel                                           Heat of Combustion (kJ/kg)
   INTERMEDIATE PRODUCTS                                           2517.8924

   Stoichiometry

   Primitive Species Stoich. Coeff.
   Species ID                                                          Molar
   OXYGEN                                                          -0.130454
   CARBON DIOXIDE                                                   0.187468
   WATER VAPOR                                                      0.003865
   CARBON MONOXIDE                                                 -0.117893
   SOOT                                                            -0.077305

   Tracked (Lumped) Species Stoich. Coeff.
   Species ID                                             Molar         Mass
   AIR                                                -0.628514    -0.737768
   PRODUCTS                                            1.494195     1.737768
   INTERMEDIATE PRODUCTS                              -1.000000    -1.000000

   Reaction Kinetics

   Arrhenius Parameters
   Pre-exponential:    Infinite
   Activation Energy:  N/A

   ODE Solver:  EXPLICIT EULER
   Extinction Model:  EXTINCTION 2
   Auto-Ignition Temperature (K):       0.0
   Critical Flame Temperature (K):   1700.2


 Material Information


 Surface Conditions

   0 INERT

   1 side wall (DEFAULT)

   2 wall

   3 burner
     HRR Per Unit Area (kW/m2)        826.6
     ETHYLENE Mass Flux (kg/s/m2)   1.81E-02

   4 coflow
     Normal Velocity (m/s)        -0.074
     AIR Mass Fraction         1.000

   5 OPEN
     Passive Vent to Atmosphere

   6 MIRROR
     Symmetry Plane

   7 INTERPOLATED

   8 PERIODIC

   9 HVAC

  10 MASSLESS TRACER

  11 DROPLET

  12 EVACUATION_OUTFLOW
     Normal Velocity (m/s)         0.000

  13 MASSLESS TARGET

  14 PERIODIC FLOW ONLY


 Lagrangian Particle Classes


 PROPerty Information

   1 T_hist
     Smokeview ID                sensor

   2 soot_hist
     Smokeview ID                sensor


 Cut-off Density and Temperature

    Minimum Temperature:   -10.0 C
    Maximum Temperature:  2726.8 C
    Minimum Density:  1.195E-01 kg/m3
    Maximum Density:  2.663E+00 kg/m3


 Device Information

   1 ID: RHRRPUL
     QUANTITY: RHRRPUL
     Coordinates (X,Y,Z):  -0.200E-03  -0.200E-03   0.500E-02
     TEMPORAL STATISTIC: RUNNING AVERAGE
   2 ID: RHRRPUL
     QUANTITY: RHRRPUL
     Coordinates (X,Y,Z):  -0.200E-03  -0.200E-03   0.460E-01
     TEMPORAL STATISTIC: RUNNING AVERAGE
   3 ID: RHRRPUL
     QUANTITY: RHRRPUL
     Coordinates (X,Y,Z):  -0.200E-03  -0.200E-03   0.870E-01
     TEMPORAL STATISTIC: RUNNING AVERAGE
   4 ID: RHRRPUL
     QUANTITY: RHRRPUL
     Coordinates (X,Y,Z):  -0.200E-03  -0.200E-03   0.128E+00
     TEMPORAL STATISTIC: RUNNING AVERAGE
   5 ID: RHRRPUL
     QUANTITY: RHRRPUL
     Coordinates (X,Y,Z):  -0.200E-03  -0.200E-03   0.169E+00
     TEMPORAL STATISTIC: RUNNING AVERAGE
   6 ID: RHRRPUL
     QUANTITY: RHRRPUL
     Coordinates (X,Y,Z):  -0.200E-03  -0.200E-03   0.210E+00
     TEMPORAL STATISTIC: RUNNING AVERAGE
   7 ID: RHRRPUL
     QUANTITY: RHRRPUL
     Coordinates (X,Y,Z):  -0.200E-03  -0.200E-03   0.251E+00
     TEMPORAL STATISTIC: RUNNING AVERAGE
   8 ID: RHRRPUL
     QUANTITY: RHRRPUL
     Coordinates (X,Y,Z):  -0.200E-03  -0.200E-03   0.292E+00
     TEMPORAL STATISTIC: RUNNING AVERAGE
   9 ID: RHRRPUL
     QUANTITY: RHRRPUL
     Coordinates (X,Y,Z):  -0.200E-03  -0.200E-03   0.333E+00
     TEMPORAL STATISTIC: RUNNING AVERAGE
  10 ID: RHRRPUL
     QUANTITY: RHRRPUL
     Coordinates (X,Y,Z):  -0.200E-03  -0.200E-03   0.374E+00
     TEMPORAL STATISTIC: RUNNING AVERAGE
  11 ID: RHRRPUL
     QUANTITY: RHRRPUL
     Coordinates (X,Y,Z):  -0.200E-03  -0.200E-03   0.415E+00
     TEMPORAL STATISTIC: RUNNING AVERAGE
  12 ID: RHRRPUL
     QUANTITY: RHRRPUL
     Coordinates (X,Y,Z):  -0.200E-03  -0.200E-03   0.456E+00
     TEMPORAL STATISTIC: RUNNING AVERAGE
  13 ID: RHRRPUL
     QUANTITY: RHRRPUL
     Coordinates (X,Y,Z):  -0.200E-03  -0.200E-03   0.497E+00
     TEMPORAL STATISTIC: RUNNING AVERAGE
  14 ID: RHRRPUL
     QUANTITY: RHRRPUL
     Coordinates (X,Y,Z):  -0.200E-03  -0.200E-03   0.538E+00
     TEMPORAL STATISTIC: RUNNING AVERAGE
  15 ID: RHRRPUL
     QUANTITY: RHRRPUL
     Coordinates (X,Y,Z):  -0.200E-03  -0.200E-03   0.579E+00
     TEMPORAL STATISTIC: RUNNING AVERAGE
  16 ID: RHRRPUL
     QUANTITY: RHRRPUL
     Coordinates (X,Y,Z):  -0.200E-03  -0.200E-03   0.620E+00
     TEMPORAL STATISTIC: RUNNING AVERAGE
  17 ID: RHRRPUL
     QUANTITY: RHRRPUL
     Coordinates (X,Y,Z):  -0.200E-03  -0.200E-03   0.661E+00
     TEMPORAL STATISTIC: RUNNING AVERAGE
  18 ID: RHRRPUL
     QUANTITY: RHRRPUL
     Coordinates (X,Y,Z):  -0.200E-03  -0.200E-03   0.702E+00
     TEMPORAL STATISTIC: RUNNING AVERAGE
  19 ID: RHRRPUL
     QUANTITY: RHRRPUL
     Coordinates (X,Y,Z):  -0.200E-03  -0.200E-03   0.743E+00
     TEMPORAL STATISTIC: RUNNING AVERAGE
  20 ID: RHRRPUL
     QUANTITY: RHRRPUL
     Coordinates (X,Y,Z):  -0.200E-03  -0.200E-03   0.784E+00
     TEMPORAL STATISTIC: RUNNING AVERAGE
  21 ID: RHRRPUL
     QUANTITY: RHRRPUL
     Coordinates (X,Y,Z):  -0.200E-03  -0.200E-03   0.825E+00
     TEMPORAL STATISTIC: RUNNING AVERAGE
  22 ID: RHRRPUL_rms
     QUANTITY: RHRRPUL
     Coordinates (X,Y,Z):  -0.200E-03  -0.200E-03   0.500E-02
     TEMPORAL STATISTIC: RMS
  23 ID: RHRRPUL_rms
     QUANTITY: RHRRPUL
     Coordinates (X,Y,Z):  -0.200E-03  -0.200E-03   0.460E-01
     TEMPORAL STATISTIC: RMS
  24 ID: RHRRPUL_rms
     QUANTITY: RHRRPUL
     Coordinates (X,Y,Z):  -0.200E-03  -0.200E-03   0.870E-01
     TEMPORAL STATISTIC: RMS
  25 ID: RHRRPUL_rms
     QUANTITY: RHRRPUL
     Coordinates (X,Y,Z):  -0.200E-03  -0.200E-03   0.128E+00
     TEMPORAL STATISTIC: RMS
  26 ID: RHRRPUL_rms
     QUANTITY: RHRRPUL
     Coordinates (X,Y,Z):  -0.200E-03  -0.200E-03   0.169E+00
     TEMPORAL STATISTIC: RMS
  27 ID: RHRRPUL_rms
     QUANTITY: RHRRPUL
     Coordinates (X,Y,Z):  -0.200E-03  -0.200E-03   0.210E+00
     TEMPORAL STATISTIC: RMS
  28 ID: RHRRPUL_rms
     QUANTITY: RHRRPUL
     Coordinates (X,Y,Z):  -0.200E-03  -0.200E-03   0.251E+00
     TEMPORAL STATISTIC: RMS
  29 ID: RHRRPUL_rms
     QUANTITY: RHRRPUL
     Coordinates (X,Y,Z):  -0.200E-03  -0.200E-03   0.292E+00
     TEMPORAL STATISTIC: RMS
  30 ID: RHRRPUL_rms
     QUANTITY: RHRRPUL
     Coordinates (X,Y,Z):  -0.200E-03  -0.200E-03   0.333E+00
     TEMPORAL STATISTIC: RMS
  31 ID: RHRRPUL_rms
     QUANTITY: RHRRPUL
     Coordinates (X,Y,Z):  -0.200E-03  -0.200E-03   0.374E+00
     TEMPORAL STATISTIC: RMS
  32 ID: RHRRPUL_rms
     QUANTITY: RHRRPUL
     Coordinates (X,Y,Z):  -0.200E-03  -0.200E-03   0.415E+00
     TEMPORAL STATISTIC: RMS
  33 ID: RHRRPUL_rms
     QUANTITY: RHRRPUL
     Coordinates (X,Y,Z):  -0.200E-03  -0.200E-03   0.456E+00
     TEMPORAL STATISTIC: RMS
  34 ID: RHRRPUL_rms
     QUANTITY: RHRRPUL
     Coordinates (X,Y,Z):  -0.200E-03  -0.200E-03   0.497E+00
     TEMPORAL STATISTIC: RMS
  35 ID: RHRRPUL_rms
     QUANTITY: RHRRPUL
     Coordinates (X,Y,Z):  -0.200E-03  -0.200E-03   0.538E+00
     TEMPORAL STATISTIC: RMS
  36 ID: RHRRPUL_rms
     QUANTITY: RHRRPUL
     Coordinates (X,Y,Z):  -0.200E-03  -0.200E-03   0.579E+00
     TEMPORAL STATISTIC: RMS
  37 ID: RHRRPUL_rms
     QUANTITY: RHRRPUL
     Coordinates (X,Y,Z):  -0.200E-03  -0.200E-03   0.620E+00
     TEMPORAL STATISTIC: RMS
  38 ID: RHRRPUL_rms
     QUANTITY: RHRRPUL
     Coordinates (X,Y,Z):  -0.200E-03  -0.200E-03   0.661E+00
     TEMPORAL STATISTIC: RMS
  39 ID: RHRRPUL_rms
     QUANTITY: RHRRPUL
     Coordinates (X,Y,Z):  -0.200E-03  -0.200E-03   0.702E+00
     TEMPORAL STATISTIC: RMS
  40 ID: RHRRPUL_rms
     QUANTITY: RHRRPUL
     Coordinates (X,Y,Z):  -0.200E-03  -0.200E-03   0.743E+00
     TEMPORAL STATISTIC: RMS
  41 ID: RHRRPUL_rms
     QUANTITY: RHRRPUL
     Coordinates (X,Y,Z):  -0.200E-03  -0.200E-03   0.784E+00
     TEMPORAL STATISTIC: RMS
  42 ID: RHRRPUL_rms
     QUANTITY: RHRRPUL
     Coordinates (X,Y,Z):  -0.200E-03  -0.200E-03   0.825E+00
     TEMPORAL STATISTIC: RMS
  43 ID: T_1p0D
     QUANTITY: TEMPERATURE
     Coordinates (X,Y,Z):  -0.500E-02  -0.200E-03   0.152E+00
     TEMPORAL STATISTIC: RUNNING AVERAGE
  44 ID: T_1p0D
     QUANTITY: TEMPERATURE
     Coordinates (X,Y,Z):   0.150E-01  -0.200E-03   0.152E+00
     TEMPORAL STATISTIC: RUNNING AVERAGE
  45 ID: T_1p0D
     QUANTITY: TEMPERATURE
     Coordinates (X,Y,Z):   0.350E-01  -0.200E-03   0.152E+00
     TEMPORAL STATISTIC: RUNNING AVERAGE
  46 ID: T_1p0D
     QUANTITY: TEMPERATURE
     Coordinates (X,Y,Z):   0.550E-01  -0.200E-03   0.152E+00
     TEMPORAL STATISTIC: RUNNING AVERAGE
  47 ID: T_1p0D
     QUANTITY: TEMPERATURE
     Coordinates (X,Y,Z):   0.750E-01  -0.200E-03   0.152E+00
     TEMPORAL STATISTIC: RUNNING AVERAGE
  48 ID: T_1p0D
     QUANTITY: TEMPERATURE
     Coordinates (X,Y,Z):   0.950E-01  -0.200E-03   0.152E+00
     TEMPORAL STATISTIC: RUNNING AVERAGE
  49 ID: T_1p0D
     QUANTITY: TEMPERATURE
     Coordinates (X,Y,Z):   0.115E+00  -0.200E-03   0.152E+00
     TEMPORAL STATISTIC: RUNNING AVERAGE
  50 ID: T_1p5D
     QUANTITY: TEMPERATURE
     Coordinates (X,Y,Z):  -0.500E-02  -0.200E-03   0.228E+00
     TEMPORAL STATISTIC: RUNNING AVERAGE
  51 ID: T_1p5D
     QUANTITY: TEMPERATURE
     Coordinates (X,Y,Z):   0.150E-01  -0.200E-03   0.228E+00
     TEMPORAL STATISTIC: RUNNING AVERAGE
  52 ID: T_1p5D
     QUANTITY: TEMPERATURE
     Coordinates (X,Y,Z):   0.350E-01  -0.200E-03   0.228E+00
     TEMPORAL STATISTIC: RUNNING AVERAGE
  53 ID: T_1p5D
     QUANTITY: TEMPERATURE
     Coordinates (X,Y,Z):   0.550E-01  -0.200E-03   0.228E+00
     TEMPORAL STATISTIC: RUNNING AVERAGE
  54 ID: T_1p5D
     QUANTITY: TEMPERATURE
     Coordinates (X,Y,Z):   0.750E-01  -0.200E-03   0.228E+00
     TEMPORAL STATISTIC: RUNNING AVERAGE
  55 ID: T_1p5D
     QUANTITY: TEMPERATURE
     Coordinates (X,Y,Z):   0.950E-01  -0.200E-03   0.228E+00
     TEMPORAL STATISTIC: RUNNING AVERAGE
  56 ID: T_1p5D
     QUANTITY: TEMPERATURE
     Coordinates (X,Y,Z):   0.115E+00  -0.200E-03   0.228E+00
     TEMPORAL STATISTIC: RUNNING AVERAGE
  57 ID: T_2p0D
     QUANTITY: TEMPERATURE
     Coordinates (X,Y,Z):  -0.500E-02  -0.200E-03   0.304E+00
     TEMPORAL STATISTIC: RUNNING AVERAGE
  58 ID: T_2p0D
     QUANTITY: TEMPERATURE
     Coordinates (X,Y,Z):   0.150E-01  -0.200E-03   0.304E+00
     TEMPORAL STATISTIC: RUNNING AVERAGE
  59 ID: T_2p0D
     QUANTITY: TEMPERATURE
     Coordinates (X,Y,Z):   0.350E-01  -0.200E-03   0.304E+00
     TEMPORAL STATISTIC: RUNNING AVERAGE
  60 ID: T_2p0D
     QUANTITY: TEMPERATURE
     Coordinates (X,Y,Z):   0.550E-01  -0.200E-03   0.304E+00
     TEMPORAL STATISTIC: RUNNING AVERAGE
  61 ID: T_2p0D
     QUANTITY: TEMPERATURE
     Coordinates (X,Y,Z):   0.750E-01  -0.200E-03   0.304E+00
     TEMPORAL STATISTIC: RUNNING AVERAGE
  62 ID: T_2p0D
     QUANTITY: TEMPERATURE
     Coordinates (X,Y,Z):   0.950E-01  -0.200E-03   0.304E+00
     TEMPORAL STATISTIC: RUNNING AVERAGE
  63 ID: T_2p0D
     QUANTITY: TEMPERATURE
     Coordinates (X,Y,Z):   0.115E+00  -0.200E-03   0.304E+00
     TEMPORAL STATISTIC: RUNNING AVERAGE
  64 ID: T_2p5D
     QUANTITY: TEMPERATURE
     Coordinates (X,Y,Z):  -0.500E-02  -0.200E-03   0.380E+00
     TEMPORAL STATISTIC: RUNNING AVERAGE
  65 ID: T_2p5D
     QUANTITY: TEMPERATURE
     Coordinates (X,Y,Z):   0.150E-01  -0.200E-03   0.380E+00
     TEMPORAL STATISTIC: RUNNING AVERAGE
  66 ID: T_2p5D
     QUANTITY: TEMPERATURE
     Coordinates (X,Y,Z):   0.350E-01  -0.200E-03   0.380E+00
     TEMPORAL STATISTIC: RUNNING AVERAGE
  67 ID: T_2p5D
     QUANTITY: TEMPERATURE
     Coordinates (X,Y,Z):   0.550E-01  -0.200E-03   0.380E+00
     TEMPORAL STATISTIC: RUNNING AVERAGE
  68 ID: T_2p5D
     QUANTITY: TEMPERATURE
     Coordinates (X,Y,Z):   0.750E-01  -0.200E-03   0.380E+00
     TEMPORAL STATISTIC: RUNNING AVERAGE
  69 ID: T_2p5D
     QUANTITY: TEMPERATURE
     Coordinates (X,Y,Z):   0.950E-01  -0.200E-03   0.380E+00
     TEMPORAL STATISTIC: RUNNING AVERAGE
  70 ID: T_2p5D
     QUANTITY: TEMPERATURE
     Coordinates (X,Y,Z):   0.115E+00  -0.200E-03   0.380E+00
     TEMPORAL STATISTIC: RUNNING AVERAGE
  71 ID: T_3p0D
     QUANTITY: TEMPERATURE
     Coordinates (X,Y,Z):  -0.500E-02  -0.200E-03   0.456E+00
     TEMPORAL STATISTIC: RUNNING AVERAGE
  72 ID: T_3p0D
     QUANTITY: TEMPERATURE
     Coordinates (X,Y,Z):   0.150E-01  -0.200E-03   0.456E+00
     TEMPORAL STATISTIC: RUNNING AVERAGE
  73 ID: T_3p0D
     QUANTITY: TEMPERATURE
     Coordinates (X,Y,Z):   0.350E-01  -0.200E-03   0.456E+00
     TEMPORAL STATISTIC: RUNNING AVERAGE
  74 ID: T_3p0D
     QUANTITY: TEMPERATURE
     Coordinates (X,Y,Z):   0.550E-01  -0.200E-03   0.456E+00
     TEMPORAL STATISTIC: RUNNING AVERAGE
  75 ID: T_3p0D
     QUANTITY: TEMPERATURE
     Coordinates (X,Y,Z):   0.750E-01  -0.200E-03   0.456E+00
     TEMPORAL STATISTIC: RUNNING AVERAGE
  76 ID: T_3p0D
     QUANTITY: TEMPERATURE
     Coordinates (X,Y,Z):   0.950E-01  -0.200E-03   0.456E+00
     TEMPORAL STATISTIC: RUNNING AVERAGE
  77 ID: T_3p0D
     QUANTITY: TEMPERATURE
     Coordinates (X,Y,Z):   0.115E+00  -0.200E-03   0.456E+00
     TEMPORAL STATISTIC: RUNNING AVERAGE
  78 ID: T_3p5D
     QUANTITY: TEMPERATURE
     Coordinates (X,Y,Z):  -0.500E-02  -0.200E-03   0.532E+00
     TEMPORAL STATISTIC: RUNNING AVERAGE
  79 ID: T_3p5D
     QUANTITY: TEMPERATURE
     Coordinates (X,Y,Z):   0.150E-01  -0.200E-03   0.532E+00
     TEMPORAL STATISTIC: RUNNING AVERAGE
  80 ID: T_3p5D
     QUANTITY: TEMPERATURE
     Coordinates (X,Y,Z):   0.350E-01  -0.200E-03   0.532E+00
     TEMPORAL STATISTIC: RUNNING AVERAGE
  81 ID: T_3p5D
     QUANTITY: TEMPERATURE
     Coordinates (X,Y,Z):   0.550E-01  -0.200E-03   0.532E+00
     TEMPORAL STATISTIC: RUNNING AVERAGE
  82 ID: T_3p5D
     QUANTITY: TEMPERATURE
     Coordinates (X,Y,Z):   0.750E-01  -0.200E-03   0.532E+00
     TEMPORAL STATISTIC: RUNNING AVERAGE
  83 ID: T_3p5D
     QUANTITY: TEMPERATURE
     Coordinates (X,Y,Z):   0.950E-01  -0.200E-03   0.532E+00
     TEMPORAL STATISTIC: RUNNING AVERAGE
  84 ID: T_3p5D
     QUANTITY: TEMPERATURE
     Coordinates (X,Y,Z):   0.115E+00  -0.200E-03   0.532E+00
     TEMPORAL STATISTIC: RUNNING AVERAGE
  85 ID: T_rms_1p0D
     QUANTITY: TEMPERATURE
     Coordinates (X,Y,Z):  -0.500E-02  -0.200E-03   0.152E+00
     TEMPORAL STATISTIC: RMS
  86 ID: T_rms_1p0D
     QUANTITY: TEMPERATURE
     Coordinates (X,Y,Z):   0.150E-01  -0.200E-03   0.152E+00
     TEMPORAL STATISTIC: RMS
  87 ID: T_rms_1p0D
     QUANTITY: TEMPERATURE
     Coordinates (X,Y,Z):   0.350E-01  -0.200E-03   0.152E+00
     TEMPORAL STATISTIC: RMS
  88 ID: T_rms_1p0D
     QUANTITY: TEMPERATURE
     Coordinates (X,Y,Z):   0.550E-01  -0.200E-03   0.152E+00
     TEMPORAL STATISTIC: RMS
  89 ID: T_rms_1p0D
     QUANTITY: TEMPERATURE
     Coordinates (X,Y,Z):   0.750E-01  -0.200E-03   0.152E+00
     TEMPORAL STATISTIC: RMS
  90 ID: T_rms_1p0D
     QUANTITY: TEMPERATURE
     Coordinates (X,Y,Z):   0.950E-01  -0.200E-03   0.152E+00
     TEMPORAL STATISTIC: RMS
  91 ID: T_rms_1p0D
     QUANTITY: TEMPERATURE
     Coordinates (X,Y,Z):   0.115E+00  -0.200E-03   0.152E+00
     TEMPORAL STATISTIC: RMS
  92 ID: T_rms_1p5D
     QUANTITY: TEMPERATURE
     Coordinates (X,Y,Z):  -0.500E-02  -0.200E-03   0.228E+00
     TEMPORAL STATISTIC: RMS
  93 ID: T_rms_1p5D
     QUANTITY: TEMPERATURE
     Coordinates (X,Y,Z):   0.150E-01  -0.200E-03   0.228E+00
     TEMPORAL STATISTIC: RMS
  94 ID: T_rms_1p5D
     QUANTITY: TEMPERATURE
     Coordinates (X,Y,Z):   0.350E-01  -0.200E-03   0.228E+00
     TEMPORAL STATISTIC: RMS
  95 ID: T_rms_1p5D
     QUANTITY: TEMPERATURE
     Coordinates (X,Y,Z):   0.550E-01  -0.200E-03   0.228E+00
     TEMPORAL STATISTIC: RMS
  96 ID: T_rms_1p5D
     QUANTITY: TEMPERATURE
     Coordinates (X,Y,Z):   0.750E-01  -0.200E-03   0.228E+00
     TEMPORAL STATISTIC: RMS
  97 ID: T_rms_1p5D
     QUANTITY: TEMPERATURE
     Coordinates (X,Y,Z):   0.950E-01  -0.200E-03   0.228E+00
     TEMPORAL STATISTIC: RMS
  98 ID: T_rms_1p5D
     QUANTITY: TEMPERATURE
     Coordinates (X,Y,Z):   0.115E+00  -0.200E-03   0.228E+00
     TEMPORAL STATISTIC: RMS
  99 ID: T_rms_2p0D
     QUANTITY: TEMPERATURE
     Coordinates (X,Y,Z):  -0.500E-02  -0.200E-03   0.304E+00
     TEMPORAL STATISTIC: RMS
 100 ID: T_rms_2p0D
     QUANTITY: TEMPERATURE
     Coordinates (X,Y,Z):   0.150E-01  -0.200E-03   0.304E+00
     TEMPORAL STATISTIC: RMS
 101 ID: T_rms_2p0D
     QUANTITY: TEMPERATURE
     Coordinates (X,Y,Z):   0.350E-01  -0.200E-03   0.304E+00
     TEMPORAL STATISTIC: RMS
 102 ID: T_rms_2p0D
     QUANTITY: TEMPERATURE
     Coordinates (X,Y,Z):   0.550E-01  -0.200E-03   0.304E+00
     TEMPORAL STATISTIC: RMS
 103 ID: T_rms_2p0D
     QUANTITY: TEMPERATURE
     Coordinates (X,Y,Z):   0.750E-01  -0.200E-03   0.304E+00
     TEMPORAL STATISTIC: RMS
 104 ID: T_rms_2p0D
     QUANTITY: TEMPERATURE
     Coordinates (X,Y,Z):   0.950E-01  -0.200E-03   0.304E+00
     TEMPORAL STATISTIC: RMS
 105 ID: T_rms_2p0D
     QUANTITY: TEMPERATURE
     Coordinates (X,Y,Z):   0.115E+00  -0.200E-03   0.304E+00
     TEMPORAL STATISTIC: RMS
 106 ID: T_rms_2p5D
     QUANTITY: TEMPERATURE
     Coordinates (X,Y,Z):  -0.500E-02  -0.200E-03   0.380E+00
     TEMPORAL STATISTIC: RMS
 107 ID: T_rms_2p5D
     QUANTITY: TEMPERATURE
     Coordinates (X,Y,Z):   0.150E-01  -0.200E-03   0.380E+00
     TEMPORAL STATISTIC: RMS
 108 ID: T_rms_2p5D
     QUANTITY: TEMPERATURE
     Coordinates (X,Y,Z):   0.350E-01  -0.200E-03   0.380E+00
     TEMPORAL STATISTIC: RMS
 109 ID: T_rms_2p5D
     QUANTITY: TEMPERATURE
     Coordinates (X,Y,Z):   0.550E-01  -0.200E-03   0.380E+00
     TEMPORAL STATISTIC: RMS
 110 ID: T_rms_2p5D
     QUANTITY: TEMPERATURE
     Coordinates (X,Y,Z):   0.750E-01  -0.200E-03   0.380E+00
     TEMPORAL STATISTIC: RMS
 111 ID: T_rms_2p5D
     QUANTITY: TEMPERATURE
     Coordinates (X,Y,Z):   0.950E-01  -0.200E-03   0.380E+00
     TEMPORAL STATISTIC: RMS
 112 ID: T_rms_2p5D
     QUANTITY: TEMPERATURE
     Coordinates (X,Y,Z):   0.115E+00  -0.200E-03   0.380E+00
     TEMPORAL STATISTIC: RMS
 113 ID: T_rms_3p0D
     QUANTITY: TEMPERATURE
     Coordinates (X,Y,Z):  -0.500E-02  -0.200E-03   0.456E+00
     TEMPORAL STATISTIC: RMS
 114 ID: T_rms_3p0D
     QUANTITY: TEMPERATURE
     Coordinates (X,Y,Z):   0.150E-01  -0.200E-03   0.456E+00
     TEMPORAL STATISTIC: RMS
 115 ID: T_rms_3p0D
     QUANTITY: TEMPERATURE
     Coordinates (X,Y,Z):   0.350E-01  -0.200E-03   0.456E+00
     TEMPORAL STATISTIC: RMS
 116 ID: T_rms_3p0D
     QUANTITY: TEMPERATURE
     Coordinates (X,Y,Z):   0.550E-01  -0.200E-03   0.456E+00
     TEMPORAL STATISTIC: RMS
 117 ID: T_rms_3p0D
     QUANTITY: TEMPERATURE
     Coordinates (X,Y,Z):   0.750E-01  -0.200E-03   0.456E+00
     TEMPORAL STATISTIC: RMS
 118 ID: T_rms_3p0D
     QUANTITY: TEMPERATURE
     Coordinates (X,Y,Z):   0.950E-01  -0.200E-03   0.456E+00
     TEMPORAL STATISTIC: RMS
 119 ID: T_rms_3p0D
     QUANTITY: TEMPERATURE
     Coordinates (X,Y,Z):   0.115E+00  -0.200E-03   0.456E+00
     TEMPORAL STATISTIC: RMS
 120 ID: T_rms_3p5D
     QUANTITY: TEMPERATURE
     Coordinates (X,Y,Z):  -0.500E-02  -0.200E-03   0.532E+00
     TEMPORAL STATISTIC: RMS
 121 ID: T_rms_3p5D
     QUANTITY: TEMPERATURE
     Coordinates (X,Y,Z):   0.150E-01  -0.200E-03   0.532E+00
     TEMPORAL STATISTIC: RMS
 122 ID: T_rms_3p5D
     QUANTITY: TEMPERATURE
     Coordinates (X,Y,Z):   0.350E-01  -0.200E-03   0.532E+00
     TEMPORAL STATISTIC: RMS
 123 ID: T_rms_3p5D
     QUANTITY: TEMPERATURE
     Coordinates (X,Y,Z):   0.550E-01  -0.200E-03   0.532E+00
     TEMPORAL STATISTIC: RMS
 124 ID: T_rms_3p5D
     QUANTITY: TEMPERATURE
     Coordinates (X,Y,Z):   0.750E-01  -0.200E-03   0.532E+00
     TEMPORAL STATISTIC: RMS
 125 ID: T_rms_3p5D
     QUANTITY: TEMPERATURE
     Coordinates (X,Y,Z):   0.950E-01  -0.200E-03   0.532E+00
     TEMPORAL STATISTIC: RMS
 126 ID: T_rms_3p5D
     QUANTITY: TEMPERATURE
     Coordinates (X,Y,Z):   0.115E+00  -0.200E-03   0.532E+00
     TEMPORAL STATISTIC: RMS
 127 ID: T_r=0_z=1p0D
     QUANTITY: TEMPERATURE
     Coordinates (X,Y,Z):  -0.200E-03  -0.200E-03   0.152E+00
     TEMPORAL STATISTIC: TIME AVERAGE
  Property ID: T_hist
 128 ID: T_r=1_z=1p0D
     QUANTITY: TEMPERATURE
     Coordinates (X,Y,Z):   0.100E-01  -0.200E-03   0.152E+00
     TEMPORAL STATISTIC: TIME AVERAGE
  Property ID: T_hist
 129 ID: T_r=2_z=1p0D
     QUANTITY: TEMPERATURE
     Coordinates (X,Y,Z):   0.200E-01  -0.200E-03   0.152E+00
     TEMPORAL STATISTIC: TIME AVERAGE
  Property ID: T_hist
 130 ID: T_r=3_z=1p0D
     QUANTITY: TEMPERATURE
     Coordinates (X,Y,Z):   0.300E-01  -0.200E-03   0.152E+00
     TEMPORAL STATISTIC: TIME AVERAGE
  Property ID: T_hist
 131 ID: T_r=4_z=1p0D
     QUANTITY: TEMPERATURE
     Coordinates (X,Y,Z):   0.400E-01  -0.200E-03   0.152E+00
     TEMPORAL STATISTIC: TIME AVERAGE
  Property ID: T_hist
 132 ID: T_r=0_z=1p5D
     QUANTITY: TEMPERATURE
     Coordinates (X,Y,Z):  -0.200E-03  -0.200E-03   0.228E+00
     TEMPORAL STATISTIC: TIME AVERAGE
  Property ID: T_hist
 133 ID: T_r=1_z=1p5D
     QUANTITY: TEMPERATURE
     Coordinates (X,Y,Z):   0.100E-01  -0.200E-03   0.228E+00
     TEMPORAL STATISTIC: TIME AVERAGE
  Property ID: T_hist
 134 ID: T_r=2_z=1p5D
     QUANTITY: TEMPERATURE
     Coordinates (X,Y,Z):   0.200E-01  -0.200E-03   0.228E+00
     TEMPORAL STATISTIC: TIME AVERAGE
  Property ID: T_hist
 135 ID: T_r=3_z=1p5D
     QUANTITY: TEMPERATURE
     Coordinates (X,Y,Z):   0.300E-01  -0.200E-03   0.228E+00
     TEMPORAL STATISTIC: TIME AVERAGE
  Property ID: T_hist
 136 ID: T_r=4_z=1p5D
     QUANTITY: TEMPERATURE
     Coordinates (X,Y,Z):   0.400E-01  -0.200E-03   0.228E+00
     TEMPORAL STATISTIC: TIME AVERAGE
  Property ID: T_hist
 137 ID: T_r=0_z=2p0D
     QUANTITY: TEMPERATURE
     Coordinates (X,Y,Z):  -0.200E-03  -0.200E-03   0.304E+00
     TEMPORAL STATISTIC: TIME AVERAGE
  Property ID: T_hist
 138 ID: T_r=1_z=2p0D
     QUANTITY: TEMPERATURE
     Coordinates (X,Y,Z):   0.100E-01  -0.200E-03   0.304E+00
     TEMPORAL STATISTIC: TIME AVERAGE
  Property ID: T_hist
 139 ID: T_r=2_z=2p0D
     QUANTITY: TEMPERATURE
     Coordinates (X,Y,Z):   0.200E-01  -0.200E-03   0.304E+00
     TEMPORAL STATISTIC: TIME AVERAGE
  Property ID: T_hist
 140 ID: T_r=3_z=2p0D
     QUANTITY: TEMPERATURE
     Coordinates (X,Y,Z):   0.300E-01  -0.200E-03   0.304E+00
     TEMPORAL STATISTIC: TIME AVERAGE
  Property ID: T_hist
 141 ID: T_r=4_z=2p0D
     QUANTITY: TEMPERATURE
     Coordinates (X,Y,Z):   0.400E-01  -0.200E-03   0.304E+00
     TEMPORAL STATISTIC: TIME AVERAGE
  Property ID: T_hist
 142 ID: T_r=0_z=2p5D
     QUANTITY: TEMPERATURE
     Coordinates (X,Y,Z):  -0.200E-03  -0.200E-03   0.380E+00
     TEMPORAL STATISTIC: TIME AVERAGE
  Property ID: T_hist
 143 ID: T_r=1_z=2p5D
     QUANTITY: TEMPERATURE
     Coordinates (X,Y,Z):   0.100E-01  -0.200E-03   0.380E+00
     TEMPORAL STATISTIC: TIME AVERAGE
  Property ID: T_hist
 144 ID: T_r=2_z=2p5D
     QUANTITY: TEMPERATURE
     Coordinates (X,Y,Z):   0.200E-01  -0.200E-03   0.380E+00
     TEMPORAL STATISTIC: TIME AVERAGE
  Property ID: T_hist
 145 ID: T_r=3_z=2p5D
     QUANTITY: TEMPERATURE
     Coordinates (X,Y,Z):   0.300E-01  -0.200E-03   0.380E+00
     TEMPORAL STATISTIC: TIME AVERAGE
  Property ID: T_hist
 146 ID: T_r=4_z=2p5D
     QUANTITY: TEMPERATURE
     Coordinates (X,Y,Z):   0.400E-01  -0.200E-03   0.380E+00
     TEMPORAL STATISTIC: TIME AVERAGE
  Property ID: T_hist
 147 ID: T_r=0_z=3p0D
     QUANTITY: TEMPERATURE
     Coordinates (X,Y,Z):  -0.200E-03  -0.200E-03   0.456E+00
     TEMPORAL STATISTIC: TIME AVERAGE
  Property ID: T_hist
 148 ID: T_r=1_z=3p0D
     QUANTITY: TEMPERATURE
     Coordinates (X,Y,Z):   0.100E-01  -0.200E-03   0.456E+00
     TEMPORAL STATISTIC: TIME AVERAGE
  Property ID: T_hist
 149 ID: T_r=2_z=3p0D
     QUANTITY: TEMPERATURE
     Coordinates (X,Y,Z):   0.200E-01  -0.200E-03   0.456E+00
     TEMPORAL STATISTIC: TIME AVERAGE
  Property ID: T_hist
 150 ID: T_r=3_z=3p0D
     QUANTITY: TEMPERATURE
     Coordinates (X,Y,Z):   0.300E-01  -0.200E-03   0.456E+00
     TEMPORAL STATISTIC: TIME AVERAGE
  Property ID: T_hist
 151 ID: T_r=4_z=3p0D
     QUANTITY: TEMPERATURE
     Coordinates (X,Y,Z):   0.400E-01  -0.200E-03   0.456E+00
     TEMPORAL STATISTIC: TIME AVERAGE
  Property ID: T_hist
 152 ID: T_r=0_z=3p5D
     QUANTITY: TEMPERATURE
     Coordinates (X,Y,Z):  -0.200E-03  -0.200E-03   0.532E+00
     TEMPORAL STATISTIC: TIME AVERAGE
  Property ID: T_hist
 153 ID: T_r=1_z=3p5D
     QUANTITY: TEMPERATURE
     Coordinates (X,Y,Z):   0.100E-01  -0.200E-03   0.532E+00
     TEMPORAL STATISTIC: TIME AVERAGE
  Property ID: T_hist
 154 ID: T_r=2_z=3p5D
     QUANTITY: TEMPERATURE
     Coordinates (X,Y,Z):   0.200E-01  -0.200E-03   0.532E+00
     TEMPORAL STATISTIC: TIME AVERAGE
  Property ID: T_hist
 155 ID: T_r=3_z=3p5D
     QUANTITY: TEMPERATURE
     Coordinates (X,Y,Z):   0.300E-01  -0.200E-03   0.532E+00
     TEMPORAL STATISTIC: TIME AVERAGE
  Property ID: T_hist
 156 ID: T_r=4_z=3p5D
     QUANTITY: TEMPERATURE
     Coordinates (X,Y,Z):   0.400E-01  -0.200E-03   0.532E+00
     TEMPORAL STATISTIC: TIME AVERAGE
  Property ID: T_hist
 157 ID: soot_0p5D
     QUANTITY: AEROSOL VOLUME FRACTION
     Species ID: SOOT
     Coordinates (X,Y,Z):  -0.205E+00   0.000E+00   0.760E-01
     TEMPORAL STATISTIC: RUNNING AVERAGE
 158 ID: soot_0p5D
     QUANTITY: AEROSOL VOLUME FRACTION
     Species ID: SOOT
     Coordinates (X,Y,Z):  -0.184E+00   0.000E+00   0.760E-01
     TEMPORAL STATISTIC: RUNNING AVERAGE
 159 ID: soot_0p5D
     QUANTITY: AEROSOL VOLUME FRACTION
     Species ID: SOOT
     Coordinates (X,Y,Z):  -0.164E+00   0.000E+00   0.760E-01
     TEMPORAL STATISTIC: RUNNING AVERAGE
 160 ID: soot_0p5D
     QUANTITY: AEROSOL VOLUME FRACTION
     Species ID: SOOT
     Coordinates (X,Y,Z):  -0.143E+00   0.000E+00   0.760E-01
     TEMPORAL STATISTIC: RUNNING AVERAGE
 161 ID: soot_0p5D
     QUANTITY: AEROSOL VOLUME FRACTION
     Species ID: SOOT
     Coordinates (X,Y,Z):  -0.123E+00   0.000E+00   0.760E-01
     TEMPORAL STATISTIC: RUNNING AVERAGE
 162 ID: soot_0p5D
     QUANTITY: AEROSOL VOLUME FRACTION
     Species ID: SOOT
     Coordinates (X,Y,Z):  -0.102E+00  -0.200E-03   0.760E-01
     TEMPORAL STATISTIC: RUNNING AVERAGE
 163 ID: soot_0p5D
     QUANTITY: AEROSOL VOLUME FRACTION
     Species ID: SOOT
     Coordinates (X,Y,Z):  -0.820E-01  -0.200E-03   0.760E-01
     TEMPORAL STATISTIC: RUNNING AVERAGE
 164 ID: soot_0p5D
     QUANTITY: AEROSOL VOLUME FRACTION
     Species ID: SOOT
     Coordinates (X,Y,Z):  -0.615E-01  -0.200E-03   0.760E-01
     TEMPORAL STATISTIC: RUNNING AVERAGE
 165 ID: soot_0p5D
     QUANTITY: AEROSOL VOLUME FRACTION
     Species ID: SOOT
     Coordinates (X,Y,Z):  -0.410E-01  -0.200E-03   0.760E-01
     TEMPORAL STATISTIC: RUNNING AVERAGE
 166 ID: soot_0p5D
     QUANTITY: AEROSOL VOLUME FRACTION
     Species ID: SOOT
     Coordinates (X,Y,Z):  -0.205E-01  -0.200E-03   0.760E-01
     TEMPORAL STATISTIC: RUNNING AVERAGE
 167 ID: soot_0p5D
     QUANTITY: AEROSOL VOLUME FRACTION
     Species ID: SOOT
     Coordinates (X,Y,Z):  -0.200E-03  -0.200E-03   0.760E-01
     TEMPORAL STATISTIC: RUNNING AVERAGE
 168 ID: soot_0p5D
     QUANTITY: AEROSOL VOLUME FRACTION
     Species ID: SOOT
     Coordinates (X,Y,Z):   0.205E-01  -0.200E-03   0.760E-01
     TEMPORAL STATISTIC: RUNNING AVERAGE
 169 ID: soot_0p5D
     QUANTITY: AEROSOL VOLUME FRACTION
     Species ID: SOOT
     Coordinates (X,Y,Z):   0.410E-01  -0.200E-03   0.760E-01
     TEMPORAL STATISTIC: RUNNING AVERAGE
 170 ID: soot_0p5D
     QUANTITY: AEROSOL VOLUME FRACTION
     Species ID: SOOT
     Coordinates (X,Y,Z):   0.615E-01  -0.200E-03   0.760E-01
     TEMPORAL STATISTIC: RUNNING AVERAGE
 171 ID: soot_0p5D
     QUANTITY: AEROSOL VOLUME FRACTION
     Species ID: SOOT
     Coordinates (X,Y,Z):   0.820E-01  -0.200E-03   0.760E-01
     TEMPORAL STATISTIC: RUNNING AVERAGE
 172 ID: soot_0p5D
     QUANTITY: AEROSOL VOLUME FRACTION
     Species ID: SOOT
     Coordinates (X,Y,Z):   0.103E+00  -0.200E-03   0.760E-01
     TEMPORAL STATISTIC: RUNNING AVERAGE
 173 ID: soot_0p5D
     QUANTITY: AEROSOL VOLUME FRACTION
     Species ID: SOOT
     Coordinates (X,Y,Z):   0.123E+00   0.000E+00   0.760E-01
     TEMPORAL STATISTIC: RUNNING AVERAGE
 174 ID: soot_0p5D
     QUANTITY: AEROSOL VOLUME FRACTION
     Species ID: SOOT
     Coordinates (X,Y,Z):   0.143E+00   0.000E+00   0.760E-01
     TEMPORAL STATISTIC: RUNNING AVERAGE
 175 ID: soot_0p5D
     QUANTITY: AEROSOL VOLUME FRACTION
     Species ID: SOOT
     Coordinates (X,Y,Z):   0.164E+00   0.000E+00   0.760E-01
     TEMPORAL STATISTIC: RUNNING AVERAGE
 176 ID: soot_0p5D
     QUANTITY: AEROSOL VOLUME FRACTION
     Species ID: SOOT
     Coordinates (X,Y,Z):   0.184E+00   0.000E+00   0.760E-01
     TEMPORAL STATISTIC: RUNNING AVERAGE
 177 ID: soot_0p5D
     QUANTITY: AEROSOL VOLUME FRACTION
     Species ID: SOOT
     Coordinates (X,Y,Z):   0.205E+00   0.000E+00   0.760E-01
     TEMPORAL STATISTIC: RUNNING AVERAGE
 178 ID: soot_1p0D
     QUANTITY: AEROSOL VOLUME FRACTION
     Species ID: SOOT
     Coordinates (X,Y,Z):  -0.205E+00   0.000E+00   0.152E+00
     TEMPORAL STATISTIC: RUNNING AVERAGE
 179 ID: soot_1p0D
     QUANTITY: AEROSOL VOLUME FRACTION
     Species ID: SOOT
     Coordinates (X,Y,Z):  -0.184E+00   0.000E+00   0.152E+00
     TEMPORAL STATISTIC: RUNNING AVERAGE
 180 ID: soot_1p0D
     QUANTITY: AEROSOL VOLUME FRACTION
     Species ID: SOOT
     Coordinates (X,Y,Z):  -0.164E+00   0.000E+00   0.152E+00
     TEMPORAL STATISTIC: RUNNING AVERAGE
 181 ID: soot_1p0D
     QUANTITY: AEROSOL VOLUME FRACTION
     Species ID: SOOT
     Coordinates (X,Y,Z):  -0.143E+00   0.000E+00   0.152E+00
     TEMPORAL STATISTIC: RUNNING AVERAGE
 182 ID: soot_1p0D
     QUANTITY: AEROSOL VOLUME FRACTION
     Species ID: SOOT
     Coordinates (X,Y,Z):  -0.123E+00   0.000E+00   0.152E+00
     TEMPORAL STATISTIC: RUNNING AVERAGE
 183 ID: soot_1p0D
     QUANTITY: AEROSOL VOLUME FRACTION
     Species ID: SOOT
     Coordinates (X,Y,Z):  -0.102E+00  -0.200E-03   0.152E+00
     TEMPORAL STATISTIC: RUNNING AVERAGE
 184 ID: soot_1p0D
     QUANTITY: AEROSOL VOLUME FRACTION
     Species ID: SOOT
     Coordinates (X,Y,Z):  -0.820E-01  -0.200E-03   0.152E+00
     TEMPORAL STATISTIC: RUNNING AVERAGE
 185 ID: soot_1p0D
     QUANTITY: AEROSOL VOLUME FRACTION
     Species ID: SOOT
     Coordinates (X,Y,Z):  -0.615E-01  -0.200E-03   0.152E+00
     TEMPORAL STATISTIC: RUNNING AVERAGE
 186 ID: soot_1p0D
     QUANTITY: AEROSOL VOLUME FRACTION
     Species ID: SOOT
     Coordinates (X,Y,Z):  -0.410E-01  -0.200E-03   0.152E+00
     TEMPORAL STATISTIC: RUNNING AVERAGE
 187 ID: soot_1p0D
     QUANTITY: AEROSOL VOLUME FRACTION
     Species ID: SOOT
     Coordinates (X,Y,Z):  -0.205E-01  -0.200E-03   0.152E+00
     TEMPORAL STATISTIC: RUNNING AVERAGE
 188 ID: soot_1p0D
     QUANTITY: AEROSOL VOLUME FRACTION
     Species ID: SOOT
     Coordinates (X,Y,Z):  -0.200E-03  -0.200E-03   0.152E+00
     TEMPORAL STATISTIC: RUNNING AVERAGE
 189 ID: soot_1p0D
     QUANTITY: AEROSOL VOLUME FRACTION
     Species ID: SOOT
     Coordinates (X,Y,Z):   0.205E-01  -0.200E-03   0.152E+00
     TEMPORAL STATISTIC: RUNNING AVERAGE
 190 ID: soot_1p0D
     QUANTITY: AEROSOL VOLUME FRACTION
     Species ID: SOOT
     Coordinates (X,Y,Z):   0.410E-01  -0.200E-03   0.152E+00
     TEMPORAL STATISTIC: RUNNING AVERAGE
 191 ID: soot_1p0D
     QUANTITY: AEROSOL VOLUME FRACTION
     Species ID: SOOT
     Coordinates (X,Y,Z):   0.615E-01  -0.200E-03   0.152E+00
     TEMPORAL STATISTIC: RUNNING AVERAGE
 192 ID: soot_1p0D
     QUANTITY: AEROSOL VOLUME FRACTION
     Species ID: SOOT
     Coordinates (X,Y,Z):   0.820E-01  -0.200E-03   0.152E+00
     TEMPORAL STATISTIC: RUNNING AVERAGE
 193 ID: soot_1p0D
     QUANTITY: AEROSOL VOLUME FRACTION
     Species ID: SOOT
     Coordinates (X,Y,Z):   0.103E+00  -0.200E-03   0.152E+00
     TEMPORAL STATISTIC: RUNNING AVERAGE
 194 ID: soot_1p0D
     QUANTITY: AEROSOL VOLUME FRACTION
     Species ID: SOOT
     Coordinates (X,Y,Z):   0.123E+00   0.000E+00   0.152E+00
     TEMPORAL STATISTIC: RUNNING AVERAGE
 195 ID: soot_1p0D
     QUANTITY: AEROSOL VOLUME FRACTION
     Species ID: SOOT
     Coordinates (X,Y,Z):   0.143E+00   0.000E+00   0.152E+00
     TEMPORAL STATISTIC: RUNNING AVERAGE
 196 ID: soot_1p0D
     QUANTITY: AEROSOL VOLUME FRACTION
     Species ID: SOOT
     Coordinates (X,Y,Z):   0.164E+00   0.000E+00   0.152E+00
     TEMPORAL STATISTIC: RUNNING AVERAGE
 197 ID: soot_1p0D
     QUANTITY: AEROSOL VOLUME FRACTION
     Species ID: SOOT
     Coordinates (X,Y,Z):   0.184E+00   0.000E+00   0.152E+00
     TEMPORAL STATISTIC: RUNNING AVERAGE
 198 ID: soot_1p0D
     QUANTITY: AEROSOL VOLUME FRACTION
     Species ID: SOOT
     Coordinates (X,Y,Z):   0.205E+00   0.000E+00   0.152E+00
     TEMPORAL STATISTIC: RUNNING AVERAGE
 199 ID: soot_1p5D
     QUANTITY: AEROSOL VOLUME FRACTION
     Species ID: SOOT
     Coordinates (X,Y,Z):  -0.205E+00   0.000E+00   0.228E+00
     TEMPORAL STATISTIC: RUNNING AVERAGE
 200 ID: soot_1p5D
     QUANTITY: AEROSOL VOLUME FRACTION
     Species ID: SOOT
     Coordinates (X,Y,Z):  -0.184E+00   0.000E+00   0.228E+00
     TEMPORAL STATISTIC: RUNNING AVERAGE
 201 ID: soot_1p5D
     QUANTITY: AEROSOL VOLUME FRACTION
     Species ID: SOOT
     Coordinates (X,Y,Z):  -0.164E+00   0.000E+00   0.228E+00
     TEMPORAL STATISTIC: RUNNING AVERAGE
 202 ID: soot_1p5D
     QUANTITY: AEROSOL VOLUME FRACTION
     Species ID: SOOT
     Coordinates (X,Y,Z):  -0.143E+00   0.000E+00   0.228E+00
     TEMPORAL STATISTIC: RUNNING AVERAGE
 203 ID: soot_1p5D
     QUANTITY: AEROSOL VOLUME FRACTION
     Species ID: SOOT
     Coordinates (X,Y,Z):  -0.123E+00   0.000E+00   0.228E+00
     TEMPORAL STATISTIC: RUNNING AVERAGE
 204 ID: soot_1p5D
     QUANTITY: AEROSOL VOLUME FRACTION
     Species ID: SOOT
     Coordinates (X,Y,Z):  -0.102E+00  -0.200E-03   0.228E+00
     TEMPORAL STATISTIC: RUNNING AVERAGE
 205 ID: soot_1p5D
     QUANTITY: AEROSOL VOLUME FRACTION
     Species ID: SOOT
     Coordinates (X,Y,Z):  -0.820E-01  -0.200E-03   0.228E+00
     TEMPORAL STATISTIC: RUNNING AVERAGE
 206 ID: soot_1p5D
     QUANTITY: AEROSOL VOLUME FRACTION
     Species ID: SOOT
     Coordinates (X,Y,Z):  -0.615E-01  -0.200E-03   0.228E+00
     TEMPORAL STATISTIC: RUNNING AVERAGE
 207 ID: soot_1p5D
     QUANTITY: AEROSOL VOLUME FRACTION
     Species ID: SOOT
     Coordinates (X,Y,Z):  -0.410E-01  -0.200E-03   0.228E+00
     TEMPORAL STATISTIC: RUNNING AVERAGE
 208 ID: soot_1p5D
     QUANTITY: AEROSOL VOLUME FRACTION
     Species ID: SOOT
     Coordinates (X,Y,Z):  -0.205E-01  -0.200E-03   0.228E+00
     TEMPORAL STATISTIC: RUNNING AVERAGE
 209 ID: soot_1p5D
     QUANTITY: AEROSOL VOLUME FRACTION
     Species ID: SOOT
     Coordinates (X,Y,Z):  -0.200E-03  -0.200E-03   0.228E+00
     TEMPORAL STATISTIC: RUNNING AVERAGE
 210 ID: soot_1p5D
     QUANTITY: AEROSOL VOLUME FRACTION
     Species ID: SOOT
     Coordinates (X,Y,Z):   0.205E-01  -0.200E-03   0.228E+00
     TEMPORAL STATISTIC: RUNNING AVERAGE
 211 ID: soot_1p5D
     QUANTITY: AEROSOL VOLUME FRACTION
     Species ID: SOOT
     Coordinates (X,Y,Z):   0.410E-01  -0.200E-03   0.228E+00
     TEMPORAL STATISTIC: RUNNING AVERAGE
 212 ID: soot_1p5D
     QUANTITY: AEROSOL VOLUME FRACTION
     Species ID: SOOT
     Coordinates (X,Y,Z):   0.615E-01  -0.200E-03   0.228E+00
     TEMPORAL STATISTIC: RUNNING AVERAGE
 213 ID: soot_1p5D
     QUANTITY: AEROSOL VOLUME FRACTION
     Species ID: SOOT
     Coordinates (X,Y,Z):   0.820E-01  -0.200E-03   0.228E+00
     TEMPORAL STATISTIC: RUNNING AVERAGE
 214 ID: soot_1p5D
     QUANTITY: AEROSOL VOLUME FRACTION
     Species ID: SOOT
     Coordinates (X,Y,Z):   0.103E+00  -0.200E-03   0.228E+00
     TEMPORAL STATISTIC: RUNNING AVERAGE
 215 ID: soot_1p5D
     QUANTITY: AEROSOL VOLUME FRACTION
     Species ID: SOOT
     Coordinates (X,Y,Z):   0.123E+00   0.000E+00   0.228E+00
     TEMPORAL STATISTIC: RUNNING AVERAGE
 216 ID: soot_1p5D
     QUANTITY: AEROSOL VOLUME FRACTION
     Species ID: SOOT
     Coordinates (X,Y,Z):   0.143E+00   0.000E+00   0.228E+00
     TEMPORAL STATISTIC: RUNNING AVERAGE
 217 ID: soot_1p5D
     QUANTITY: AEROSOL VOLUME FRACTION
     Species ID: SOOT
     Coordinates (X,Y,Z):   0.164E+00   0.000E+00   0.228E+00
     TEMPORAL STATISTIC: RUNNING AVERAGE
 218 ID: soot_1p5D
     QUANTITY: AEROSOL VOLUME FRACTION
     Species ID: SOOT
     Coordinates (X,Y,Z):   0.184E+00   0.000E+00   0.228E+00
     TEMPORAL STATISTIC: RUNNING AVERAGE
 219 ID: soot_1p5D
     QUANTITY: AEROSOL VOLUME FRACTION
     Species ID: SOOT
     Coordinates (X,Y,Z):   0.205E+00   0.000E+00   0.228E+00
     TEMPORAL STATISTIC: RUNNING AVERAGE
 220 ID: soot_2p5D
     QUANTITY: AEROSOL VOLUME FRACTION
     Species ID: SOOT
     Coordinates (X,Y,Z):  -0.205E+00   0.000E+00   0.380E+00
     TEMPORAL STATISTIC: RUNNING AVERAGE
 221 ID: soot_2p5D
     QUANTITY: AEROSOL VOLUME FRACTION
     Species ID: SOOT
     Coordinates (X,Y,Z):  -0.184E+00   0.000E+00   0.380E+00
     TEMPORAL STATISTIC: RUNNING AVERAGE
 222 ID: soot_2p5D
     QUANTITY: AEROSOL VOLUME FRACTION
     Species ID: SOOT
     Coordinates (X,Y,Z):  -0.164E+00   0.000E+00   0.380E+00
     TEMPORAL STATISTIC: RUNNING AVERAGE
 223 ID: soot_2p5D
     QUANTITY: AEROSOL VOLUME FRACTION
     Species ID: SOOT
     Coordinates (X,Y,Z):  -0.143E+00   0.000E+00   0.380E+00
     TEMPORAL STATISTIC: RUNNING AVERAGE
 224 ID: soot_2p5D
     QUANTITY: AEROSOL VOLUME FRACTION
     Species ID: SOOT
     Coordinates (X,Y,Z):  -0.123E+00   0.000E+00   0.380E+00
     TEMPORAL STATISTIC: RUNNING AVERAGE
 225 ID: soot_2p5D
     QUANTITY: AEROSOL VOLUME FRACTION
     Species ID: SOOT
     Coordinates (X,Y,Z):  -0.102E+00  -0.200E-03   0.380E+00
     TEMPORAL STATISTIC: RUNNING AVERAGE
 226 ID: soot_2p5D
     QUANTITY: AEROSOL VOLUME FRACTION
     Species ID: SOOT
     Coordinates (X,Y,Z):  -0.820E-01  -0.200E-03   0.380E+00
     TEMPORAL STATISTIC: RUNNING AVERAGE
 227 ID: soot_2p5D
     QUANTITY: AEROSOL VOLUME FRACTION
     Species ID: SOOT
     Coordinates (X,Y,Z):  -0.615E-01  -0.200E-03   0.380E+00
     TEMPORAL STATISTIC: RUNNING AVERAGE
 228 ID: soot_2p5D
     QUANTITY: AEROSOL VOLUME FRACTION
     Species ID: SOOT
     Coordinates (X,Y,Z):  -0.410E-01  -0.200E-03   0.380E+00
     TEMPORAL STATISTIC: RUNNING AVERAGE
 229 ID: soot_2p5D
     QUANTITY: AEROSOL VOLUME FRACTION
     Species ID: SOOT
     Coordinates (X,Y,Z):  -0.205E-01  -0.200E-03   0.380E+00
     TEMPORAL STATISTIC: RUNNING AVERAGE
 230 ID: soot_2p5D
     QUANTITY: AEROSOL VOLUME FRACTION
     Species ID: SOOT
     Coordinates (X,Y,Z):  -0.200E-03  -0.200E-03   0.380E+00
     TEMPORAL STATISTIC: RUNNING AVERAGE
 231 ID: soot_2p5D
     QUANTITY: AEROSOL VOLUME FRACTION
     Species ID: SOOT
     Coordinates (X,Y,Z):   0.205E-01  -0.200E-03   0.380E+00
     TEMPORAL STATISTIC: RUNNING AVERAGE
 232 ID: soot_2p5D
     QUANTITY: AEROSOL VOLUME FRACTION
     Species ID: SOOT
     Coordinates (X,Y,Z):   0.410E-01  -0.200E-03   0.380E+00
     TEMPORAL STATISTIC: RUNNING AVERAGE
 233 ID: soot_2p5D
     QUANTITY: AEROSOL VOLUME FRACTION
     Species ID: SOOT
     Coordinates (X,Y,Z):   0.615E-01  -0.200E-03   0.380E+00
     TEMPORAL STATISTIC: RUNNING AVERAGE
 234 ID: soot_2p5D
     QUANTITY: AEROSOL VOLUME FRACTION
     Species ID: SOOT
     Coordinates (X,Y,Z):   0.820E-01  -0.200E-03   0.380E+00
     TEMPORAL STATISTIC: RUNNING AVERAGE
 235 ID: soot_2p5D
     QUANTITY: AEROSOL VOLUME FRACTION
     Species ID: SOOT
     Coordinates (X,Y,Z):   0.103E+00  -0.200E-03   0.380E+00
     TEMPORAL STATISTIC: RUNNING AVERAGE
 236 ID: soot_2p5D
     QUANTITY: AEROSOL VOLUME FRACTION
     Species ID: SOOT
     Coordinates (X,Y,Z):   0.123E+00   0.000E+00   0.380E+00
     TEMPORAL STATISTIC: RUNNING AVERAGE
 237 ID: soot_2p5D
     QUANTITY: AEROSOL VOLUME FRACTION
     Species ID: SOOT
     Coordinates (X,Y,Z):   0.143E+00   0.000E+00   0.380E+00
     TEMPORAL STATISTIC: RUNNING AVERAGE
 238 ID: soot_2p5D
     QUANTITY: AEROSOL VOLUME FRACTION
     Species ID: SOOT
     Coordinates (X,Y,Z):   0.164E+00   0.000E+00   0.380E+00
     TEMPORAL STATISTIC: RUNNING AVERAGE
 239 ID: soot_2p5D
     QUANTITY: AEROSOL VOLUME FRACTION
     Species ID: SOOT
     Coordinates (X,Y,Z):   0.184E+00   0.000E+00   0.380E+00
     TEMPORAL STATISTIC: RUNNING AVERAGE
 240 ID: soot_2p5D
     QUANTITY: AEROSOL VOLUME FRACTION
     Species ID: SOOT
     Coordinates (X,Y,Z):   0.205E+00   0.000E+00   0.380E+00
     TEMPORAL STATISTIC: RUNNING AVERAGE
 241 ID: soot_3p5D
     QUANTITY: AEROSOL VOLUME FRACTION
     Species ID: SOOT
     Coordinates (X,Y,Z):  -0.205E+00   0.000E+00   0.532E+00
     TEMPORAL STATISTIC: RUNNING AVERAGE
 242 ID: soot_3p5D
     QUANTITY: AEROSOL VOLUME FRACTION
     Species ID: SOOT
     Coordinates (X,Y,Z):  -0.184E+00   0.000E+00   0.532E+00
     TEMPORAL STATISTIC: RUNNING AVERAGE
 243 ID: soot_3p5D
     QUANTITY: AEROSOL VOLUME FRACTION
     Species ID: SOOT
     Coordinates (X,Y,Z):  -0.164E+00   0.000E+00   0.532E+00
     TEMPORAL STATISTIC: RUNNING AVERAGE
 244 ID: soot_3p5D
     QUANTITY: AEROSOL VOLUME FRACTION
     Species ID: SOOT
     Coordinates (X,Y,Z):  -0.143E+00   0.000E+00   0.532E+00
     TEMPORAL STATISTIC: RUNNING AVERAGE
 245 ID: soot_3p5D
     QUANTITY: AEROSOL VOLUME FRACTION
     Species ID: SOOT
     Coordinates (X,Y,Z):  -0.123E+00   0.000E+00   0.532E+00
     TEMPORAL STATISTIC: RUNNING AVERAGE
 246 ID: soot_3p5D
     QUANTITY: AEROSOL VOLUME FRACTION
     Species ID: SOOT
     Coordinates (X,Y,Z):  -0.102E+00  -0.200E-03   0.532E+00
     TEMPORAL STATISTIC: RUNNING AVERAGE
 247 ID: soot_3p5D
     QUANTITY: AEROSOL VOLUME FRACTION
     Species ID: SOOT
     Coordinates (X,Y,Z):  -0.820E-01  -0.200E-03   0.532E+00
     TEMPORAL STATISTIC: RUNNING AVERAGE
 248 ID: soot_3p5D
     QUANTITY: AEROSOL VOLUME FRACTION
     Species ID: SOOT
     Coordinates (X,Y,Z):  -0.615E-01  -0.200E-03   0.532E+00
     TEMPORAL STATISTIC: RUNNING AVERAGE
 249 ID: soot_3p5D
     QUANTITY: AEROSOL VOLUME FRACTION
     Species ID: SOOT
     Coordinates (X,Y,Z):  -0.410E-01  -0.200E-03   0.532E+00
     TEMPORAL STATISTIC: RUNNING AVERAGE
 250 ID: soot_3p5D
     QUANTITY: AEROSOL VOLUME FRACTION
     Species ID: SOOT
     Coordinates (X,Y,Z):  -0.205E-01  -0.200E-03   0.532E+00
     TEMPORAL STATISTIC: RUNNING AVERAGE
 251 ID: soot_3p5D
     QUANTITY: AEROSOL VOLUME FRACTION
     Species ID: SOOT
     Coordinates (X,Y,Z):  -0.200E-03  -0.200E-03   0.532E+00
     TEMPORAL STATISTIC: RUNNING AVERAGE
 252 ID: soot_3p5D
     QUANTITY: AEROSOL VOLUME FRACTION
     Species ID: SOOT
     Coordinates (X,Y,Z):   0.205E-01  -0.200E-03   0.532E+00
     TEMPORAL STATISTIC: RUNNING AVERAGE
 253 ID: soot_3p5D
     QUANTITY: AEROSOL VOLUME FRACTION
     Species ID: SOOT
     Coordinates (X,Y,Z):   0.410E-01  -0.200E-03   0.532E+00
     TEMPORAL STATISTIC: RUNNING AVERAGE
 254 ID: soot_3p5D
     QUANTITY: AEROSOL VOLUME FRACTION
     Species ID: SOOT
     Coordinates (X,Y,Z):   0.615E-01  -0.200E-03   0.532E+00
     TEMPORAL STATISTIC: RUNNING AVERAGE
 255 ID: soot_3p5D
     QUANTITY: AEROSOL VOLUME FRACTION
     Species ID: SOOT
     Coordinates (X,Y,Z):   0.820E-01  -0.200E-03   0.532E+00
     TEMPORAL STATISTIC: RUNNING AVERAGE
 256 ID: soot_3p5D
     QUANTITY: AEROSOL VOLUME FRACTION
     Species ID: SOOT
     Coordinates (X,Y,Z):   0.103E+00  -0.200E-03   0.532E+00
     TEMPORAL STATISTIC: RUNNING AVERAGE
 257 ID: soot_3p5D
     QUANTITY: AEROSOL VOLUME FRACTION
     Species ID: SOOT
     Coordinates (X,Y,Z):   0.123E+00   0.000E+00   0.532E+00
     TEMPORAL STATISTIC: RUNNING AVERAGE
 258 ID: soot_3p5D
     QUANTITY: AEROSOL VOLUME FRACTION
     Species ID: SOOT
     Coordinates (X,Y,Z):   0.143E+00   0.000E+00   0.532E+00
     TEMPORAL STATISTIC: RUNNING AVERAGE
 259 ID: soot_3p5D
     QUANTITY: AEROSOL VOLUME FRACTION
     Species ID: SOOT
     Coordinates (X,Y,Z):   0.164E+00   0.000E+00   0.532E+00
     TEMPORAL STATISTIC: RUNNING AVERAGE
 260 ID: soot_3p5D
     QUANTITY: AEROSOL VOLUME FRACTION
     Species ID: SOOT
     Coordinates (X,Y,Z):   0.184E+00   0.000E+00   0.532E+00
     TEMPORAL STATISTIC: RUNNING AVERAGE
 261 ID: soot_3p5D
     QUANTITY: AEROSOL VOLUME FRACTION
     Species ID: SOOT
     Coordinates (X,Y,Z):   0.205E+00   0.000E+00   0.532E+00
     TEMPORAL STATISTIC: RUNNING AVERAGE
 262 ID: soot_rms_0p5D
     QUANTITY: AEROSOL VOLUME FRACTION
     Species ID: SOOT
     Coordinates (X,Y,Z):  -0.205E+00   0.000E+00   0.760E-01
     TEMPORAL STATISTIC: RMS
 263 ID: soot_rms_0p5D
     QUANTITY: AEROSOL VOLUME FRACTION
     Species ID: SOOT
     Coordinates (X,Y,Z):  -0.184E+00   0.000E+00   0.760E-01
     TEMPORAL STATISTIC: RMS
 264 ID: soot_rms_0p5D
     QUANTITY: AEROSOL VOLUME FRACTION
     Species ID: SOOT
     Coordinates (X,Y,Z):  -0.164E+00   0.000E+00   0.760E-01
     TEMPORAL STATISTIC: RMS
 265 ID: soot_rms_0p5D
     QUANTITY: AEROSOL VOLUME FRACTION
     Species ID: SOOT
     Coordinates (X,Y,Z):  -0.143E+00   0.000E+00   0.760E-01
     TEMPORAL STATISTIC: RMS
 266 ID: soot_rms_0p5D
     QUANTITY: AEROSOL VOLUME FRACTION
     Species ID: SOOT
     Coordinates (X,Y,Z):  -0.123E+00   0.000E+00   0.760E-01
     TEMPORAL STATISTIC: RMS
 267 ID: soot_rms_0p5D
     QUANTITY: AEROSOL VOLUME FRACTION
     Species ID: SOOT
     Coordinates (X,Y,Z):  -0.102E+00  -0.200E-03   0.760E-01
     TEMPORAL STATISTIC: RMS
 268 ID: soot_rms_0p5D
     QUANTITY: AEROSOL VOLUME FRACTION
     Species ID: SOOT
     Coordinates (X,Y,Z):  -0.820E-01  -0.200E-03   0.760E-01
     TEMPORAL STATISTIC: RMS
 269 ID: soot_rms_0p5D
     QUANTITY: AEROSOL VOLUME FRACTION
     Species ID: SOOT
     Coordinates (X,Y,Z):  -0.615E-01  -0.200E-03   0.760E-01
     TEMPORAL STATISTIC: RMS
 270 ID: soot_rms_0p5D
     QUANTITY: AEROSOL VOLUME FRACTION
     Species ID: SOOT
     Coordinates (X,Y,Z):  -0.410E-01  -0.200E-03   0.760E-01
     TEMPORAL STATISTIC: RMS
 271 ID: soot_rms_0p5D
     QUANTITY: AEROSOL VOLUME FRACTION
     Species ID: SOOT
     Coordinates (X,Y,Z):  -0.205E-01  -0.200E-03   0.760E-01
     TEMPORAL STATISTIC: RMS
 272 ID: soot_rms_0p5D
     QUANTITY: AEROSOL VOLUME FRACTION
     Species ID: SOOT
     Coordinates (X,Y,Z):  -0.200E-03  -0.200E-03   0.760E-01
     TEMPORAL STATISTIC: RMS
 273 ID: soot_rms_0p5D
     QUANTITY: AEROSOL VOLUME FRACTION
     Species ID: SOOT
     Coordinates (X,Y,Z):   0.205E-01  -0.200E-03   0.760E-01
     TEMPORAL STATISTIC: RMS
 274 ID: soot_rms_0p5D
     QUANTITY: AEROSOL VOLUME FRACTION
     Species ID: SOOT
     Coordinates (X,Y,Z):   0.410E-01  -0.200E-03   0.760E-01
     TEMPORAL STATISTIC: RMS
 275 ID: soot_rms_0p5D
     QUANTITY: AEROSOL VOLUME FRACTION
     Species ID: SOOT
     Coordinates (X,Y,Z):   0.615E-01  -0.200E-03   0.760E-01
     TEMPORAL STATISTIC: RMS
 276 ID: soot_rms_0p5D
     QUANTITY: AEROSOL VOLUME FRACTION
     Species ID: SOOT
     Coordinates (X,Y,Z):   0.820E-01  -0.200E-03   0.760E-01
     TEMPORAL STATISTIC: RMS
 277 ID: soot_rms_0p5D
     QUANTITY: AEROSOL VOLUME FRACTION
     Species ID: SOOT
     Coordinates (X,Y,Z):   0.103E+00  -0.200E-03   0.760E-01
     TEMPORAL STATISTIC: RMS
 278 ID: soot_rms_0p5D
     QUANTITY: AEROSOL VOLUME FRACTION
     Species ID: SOOT
     Coordinates (X,Y,Z):   0.123E+00   0.000E+00   0.760E-01
     TEMPORAL STATISTIC: RMS
 279 ID: soot_rms_0p5D
     QUANTITY: AEROSOL VOLUME FRACTION
     Species ID: SOOT
     Coordinates (X,Y,Z):   0.143E+00   0.000E+00   0.760E-01
     TEMPORAL STATISTIC: RMS
 280 ID: soot_rms_0p5D
     QUANTITY: AEROSOL VOLUME FRACTION
     Species ID: SOOT
     Coordinates (X,Y,Z):   0.164E+00   0.000E+00   0.760E-01
     TEMPORAL STATISTIC: RMS
 281 ID: soot_rms_0p5D
     QUANTITY: AEROSOL VOLUME FRACTION
     Species ID: SOOT
     Coordinates (X,Y,Z):   0.184E+00   0.000E+00   0.760E-01
     TEMPORAL STATISTIC: RMS
 282 ID: soot_rms_0p5D
     QUANTITY: AEROSOL VOLUME FRACTION
     Species ID: SOOT
     Coordinates (X,Y,Z):   0.205E+00   0.000E+00   0.760E-01
     TEMPORAL STATISTIC: RMS
 283 ID: soot_rms_1p0D
     QUANTITY: AEROSOL VOLUME FRACTION
     Species ID: SOOT
     Coordinates (X,Y,Z):  -0.205E+00   0.000E+00   0.152E+00
     TEMPORAL STATISTIC: RMS
 284 ID: soot_rms_1p0D
     QUANTITY: AEROSOL VOLUME FRACTION
     Species ID: SOOT
     Coordinates (X,Y,Z):  -0.184E+00   0.000E+00   0.152E+00
     TEMPORAL STATISTIC: RMS
 285 ID: soot_rms_1p0D
     QUANTITY: AEROSOL VOLUME FRACTION
     Species ID: SOOT
     Coordinates (X,Y,Z):  -0.164E+00   0.000E+00   0.152E+00
     TEMPORAL STATISTIC: RMS
 286 ID: soot_rms_1p0D
     QUANTITY: AEROSOL VOLUME FRACTION
     Species ID: SOOT
     Coordinates (X,Y,Z):  -0.143E+00   0.000E+00   0.152E+00
     TEMPORAL STATISTIC: RMS
 287 ID: soot_rms_1p0D
     QUANTITY: AEROSOL VOLUME FRACTION
     Species ID: SOOT
     Coordinates (X,Y,Z):  -0.123E+00   0.000E+00   0.152E+00
     TEMPORAL STATISTIC: RMS
 288 ID: soot_rms_1p0D
     QUANTITY: AEROSOL VOLUME FRACTION
     Species ID: SOOT
     Coordinates (X,Y,Z):  -0.102E+00  -0.200E-03   0.152E+00
     TEMPORAL STATISTIC: RMS
 289 ID: soot_rms_1p0D
     QUANTITY: AEROSOL VOLUME FRACTION
     Species ID: SOOT
     Coordinates (X,Y,Z):  -0.820E-01  -0.200E-03   0.152E+00
     TEMPORAL STATISTIC: RMS
 290 ID: soot_rms_1p0D
     QUANTITY: AEROSOL VOLUME FRACTION
     Species ID: SOOT
     Coordinates (X,Y,Z):  -0.615E-01  -0.200E-03   0.152E+00
     TEMPORAL STATISTIC: RMS
 291 ID: soot_rms_1p0D
     QUANTITY: AEROSOL VOLUME FRACTION
     Species ID: SOOT
     Coordinates (X,Y,Z):  -0.410E-01  -0.200E-03   0.152E+00
     TEMPORAL STATISTIC: RMS
 292 ID: soot_rms_1p0D
     QUANTITY: AEROSOL VOLUME FRACTION
     Species ID: SOOT
     Coordinates (X,Y,Z):  -0.205E-01  -0.200E-03   0.152E+00
     TEMPORAL STATISTIC: RMS
 293 ID: soot_rms_1p0D
     QUANTITY: AEROSOL VOLUME FRACTION
     Species ID: SOOT
     Coordinates (X,Y,Z):  -0.200E-03  -0.200E-03   0.152E+00
     TEMPORAL STATISTIC: RMS
 294 ID: soot_rms_1p0D
     QUANTITY: AEROSOL VOLUME FRACTION
     Species ID: SOOT
     Coordinates (X,Y,Z):   0.205E-01  -0.200E-03   0.152E+00
     TEMPORAL STATISTIC: RMS
 295 ID: soot_rms_1p0D
     QUANTITY: AEROSOL VOLUME FRACTION
     Species ID: SOOT
     Coordinates (X,Y,Z):   0.410E-01  -0.200E-03   0.152E+00
     TEMPORAL STATISTIC: RMS
 296 ID: soot_rms_1p0D
     QUANTITY: AEROSOL VOLUME FRACTION
     Species ID: SOOT
     Coordinates (X,Y,Z):   0.615E-01  -0.200E-03   0.152E+00
     TEMPORAL STATISTIC: RMS
 297 ID: soot_rms_1p0D
     QUANTITY: AEROSOL VOLUME FRACTION
     Species ID: SOOT
     Coordinates (X,Y,Z):   0.820E-01  -0.200E-03   0.152E+00
     TEMPORAL STATISTIC: RMS
 298 ID: soot_rms_1p0D
     QUANTITY: AEROSOL VOLUME FRACTION
     Species ID: SOOT
     Coordinates (X,Y,Z):   0.103E+00  -0.200E-03   0.152E+00
     TEMPORAL STATISTIC: RMS
 299 ID: soot_rms_1p0D
     QUANTITY: AEROSOL VOLUME FRACTION
     Species ID: SOOT
     Coordinates (X,Y,Z):   0.123E+00   0.000E+00   0.152E+00
     TEMPORAL STATISTIC: RMS
 300 ID: soot_rms_1p0D
     QUANTITY: AEROSOL VOLUME FRACTION
     Species ID: SOOT
     Coordinates (X,Y,Z):   0.143E+00   0.000E+00   0.152E+00
     TEMPORAL STATISTIC: RMS
 301 ID: soot_rms_1p0D
     QUANTITY: AEROSOL VOLUME FRACTION
     Species ID: SOOT
     Coordinates (X,Y,Z):   0.164E+00   0.000E+00   0.152E+00
     TEMPORAL STATISTIC: RMS
 302 ID: soot_rms_1p0D
     QUANTITY: AEROSOL VOLUME FRACTION
     Species ID: SOOT
     Coordinates (X,Y,Z):   0.184E+00   0.000E+00   0.152E+00
     TEMPORAL STATISTIC: RMS
 303 ID: soot_rms_1p0D
     QUANTITY: AEROSOL VOLUME FRACTION
     Species ID: SOOT
     Coordinates (X,Y,Z):   0.205E+00   0.000E+00   0.152E+00
     TEMPORAL STATISTIC: RMS
 304 ID: soot_rms_1p5D
     QUANTITY: AEROSOL VOLUME FRACTION
     Species ID: SOOT
     Coordinates (X,Y,Z):  -0.205E+00   0.000E+00   0.228E+00
     TEMPORAL STATISTIC: RMS
 305 ID: soot_rms_1p5D
     QUANTITY: AEROSOL VOLUME FRACTION
     Species ID: SOOT
     Coordinates (X,Y,Z):  -0.184E+00   0.000E+00   0.228E+00
     TEMPORAL STATISTIC: RMS
 306 ID: soot_rms_1p5D
     QUANTITY: AEROSOL VOLUME FRACTION
     Species ID: SOOT
     Coordinates (X,Y,Z):  -0.164E+00   0.000E+00   0.228E+00
     TEMPORAL STATISTIC: RMS
 307 ID: soot_rms_1p5D
     QUANTITY: AEROSOL VOLUME FRACTION
     Species ID: SOOT
     Coordinates (X,Y,Z):  -0.143E+00   0.000E+00   0.228E+00
     TEMPORAL STATISTIC: RMS
 308 ID: soot_rms_1p5D
     QUANTITY: AEROSOL VOLUME FRACTION
     Species ID: SOOT
     Coordinates (X,Y,Z):  -0.123E+00   0.000E+00   0.228E+00
     TEMPORAL STATISTIC: RMS
 309 ID: soot_rms_1p5D
     QUANTITY: AEROSOL VOLUME FRACTION
     Species ID: SOOT
     Coordinates (X,Y,Z):  -0.102E+00  -0.200E-03   0.228E+00
     TEMPORAL STATISTIC: RMS
 310 ID: soot_rms_1p5D
     QUANTITY: AEROSOL VOLUME FRACTION
     Species ID: SOOT
     Coordinates (X,Y,Z):  -0.820E-01  -0.200E-03   0.228E+00
     TEMPORAL STATISTIC: RMS
 311 ID: soot_rms_1p5D
     QUANTITY: AEROSOL VOLUME FRACTION
     Species ID: SOOT
     Coordinates (X,Y,Z):  -0.615E-01  -0.200E-03   0.228E+00
     TEMPORAL STATISTIC: RMS
 312 ID: soot_rms_1p5D
     QUANTITY: AEROSOL VOLUME FRACTION
     Species ID: SOOT
     Coordinates (X,Y,Z):  -0.410E-01  -0.200E-03   0.228E+00
     TEMPORAL STATISTIC: RMS
 313 ID: soot_rms_1p5D
     QUANTITY: AEROSOL VOLUME FRACTION
     Species ID: SOOT
     Coordinates (X,Y,Z):  -0.205E-01  -0.200E-03   0.228E+00
     TEMPORAL STATISTIC: RMS
 314 ID: soot_rms_1p5D
     QUANTITY: AEROSOL VOLUME FRACTION
     Species ID: SOOT
     Coordinates (X,Y,Z):  -0.200E-03  -0.200E-03   0.228E+00
     TEMPORAL STATISTIC: RMS
 315 ID: soot_rms_1p5D
     QUANTITY: AEROSOL VOLUME FRACTION
     Species ID: SOOT
     Coordinates (X,Y,Z):   0.205E-01  -0.200E-03   0.228E+00
     TEMPORAL STATISTIC: RMS
 316 ID: soot_rms_1p5D
     QUANTITY: AEROSOL VOLUME FRACTION
     Species ID: SOOT
     Coordinates (X,Y,Z):   0.410E-01  -0.200E-03   0.228E+00
     TEMPORAL STATISTIC: RMS
 317 ID: soot_rms_1p5D
     QUANTITY: AEROSOL VOLUME FRACTION
     Species ID: SOOT
     Coordinates (X,Y,Z):   0.615E-01  -0.200E-03   0.228E+00
     TEMPORAL STATISTIC: RMS
 318 ID: soot_rms_1p5D
     QUANTITY: AEROSOL VOLUME FRACTION
     Species ID: SOOT
     Coordinates (X,Y,Z):   0.820E-01  -0.200E-03   0.228E+00
     TEMPORAL STATISTIC: RMS
 319 ID: soot_rms_1p5D
     QUANTITY: AEROSOL VOLUME FRACTION
     Species ID: SOOT
     Coordinates (X,Y,Z):   0.103E+00  -0.200E-03   0.228E+00
     TEMPORAL STATISTIC: RMS
 320 ID: soot_rms_1p5D
     QUANTITY: AEROSOL VOLUME FRACTION
     Species ID: SOOT
     Coordinates (X,Y,Z):   0.123E+00   0.000E+00   0.228E+00
     TEMPORAL STATISTIC: RMS
 321 ID: soot_rms_1p5D
     QUANTITY: AEROSOL VOLUME FRACTION
     Species ID: SOOT
     Coordinates (X,Y,Z):   0.143E+00   0.000E+00   0.228E+00
     TEMPORAL STATISTIC: RMS
 322 ID: soot_rms_1p5D
     QUANTITY: AEROSOL VOLUME FRACTION
     Species ID: SOOT
     Coordinates (X,Y,Z):   0.164E+00   0.000E+00   0.228E+00
     TEMPORAL STATISTIC: RMS
 323 ID: soot_rms_1p5D
     QUANTITY: AEROSOL VOLUME FRACTION
     Species ID: SOOT
     Coordinates (X,Y,Z):   0.184E+00   0.000E+00   0.228E+00
     TEMPORAL STATISTIC: RMS
 324 ID: soot_rms_1p5D
     QUANTITY: AEROSOL VOLUME FRACTION
     Species ID: SOOT
     Coordinates (X,Y,Z):   0.205E+00   0.000E+00   0.228E+00
     TEMPORAL STATISTIC: RMS
 325 ID: soot_rms_2p5D
     QUANTITY: AEROSOL VOLUME FRACTION
     Species ID: SOOT
     Coordinates (X,Y,Z):  -0.205E+00   0.000E+00   0.380E+00
     TEMPORAL STATISTIC: RMS
 326 ID: soot_rms_2p5D
     QUANTITY: AEROSOL VOLUME FRACTION
     Species ID: SOOT
     Coordinates (X,Y,Z):  -0.184E+00   0.000E+00   0.380E+00
     TEMPORAL STATISTIC: RMS
 327 ID: soot_rms_2p5D
     QUANTITY: AEROSOL VOLUME FRACTION
     Species ID: SOOT
     Coordinates (X,Y,Z):  -0.164E+00   0.000E+00   0.380E+00
     TEMPORAL STATISTIC: RMS
 328 ID: soot_rms_2p5D
     QUANTITY: AEROSOL VOLUME FRACTION
     Species ID: SOOT
     Coordinates (X,Y,Z):  -0.143E+00   0.000E+00   0.380E+00
     TEMPORAL STATISTIC: RMS
 329 ID: soot_rms_2p5D
     QUANTITY: AEROSOL VOLUME FRACTION
     Species ID: SOOT
     Coordinates (X,Y,Z):  -0.123E+00   0.000E+00   0.380E+00
     TEMPORAL STATISTIC: RMS
 330 ID: soot_rms_2p5D
     QUANTITY: AEROSOL VOLUME FRACTION
     Species ID: SOOT
     Coordinates (X,Y,Z):  -0.102E+00  -0.200E-03   0.380E+00
     TEMPORAL STATISTIC: RMS
 331 ID: soot_rms_2p5D
     QUANTITY: AEROSOL VOLUME FRACTION
     Species ID: SOOT
     Coordinates (X,Y,Z):  -0.820E-01  -0.200E-03   0.380E+00
     TEMPORAL STATISTIC: RMS
 332 ID: soot_rms_2p5D
     QUANTITY: AEROSOL VOLUME FRACTION
     Species ID: SOOT
     Coordinates (X,Y,Z):  -0.615E-01  -0.200E-03   0.380E+00
     TEMPORAL STATISTIC: RMS
 333 ID: soot_rms_2p5D
     QUANTITY: AEROSOL VOLUME FRACTION
     Species ID: SOOT
     Coordinates (X,Y,Z):  -0.410E-01  -0.200E-03   0.380E+00
     TEMPORAL STATISTIC: RMS
 334 ID: soot_rms_2p5D
     QUANTITY: AEROSOL VOLUME FRACTION
     Species ID: SOOT
     Coordinates (X,Y,Z):  -0.205E-01  -0.200E-03   0.380E+00
     TEMPORAL STATISTIC: RMS
 335 ID: soot_rms_2p5D
     QUANTITY: AEROSOL VOLUME FRACTION
     Species ID: SOOT
     Coordinates (X,Y,Z):  -0.200E-03  -0.200E-03   0.380E+00
     TEMPORAL STATISTIC: RMS
 336 ID: soot_rms_2p5D
     QUANTITY: AEROSOL VOLUME FRACTION
     Species ID: SOOT
     Coordinates (X,Y,Z):   0.205E-01  -0.200E-03   0.380E+00
     TEMPORAL STATISTIC: RMS
 337 ID: soot_rms_2p5D
     QUANTITY: AEROSOL VOLUME FRACTION
     Species ID: SOOT
     Coordinates (X,Y,Z):   0.410E-01  -0.200E-03   0.380E+00
     TEMPORAL STATISTIC: RMS
 338 ID: soot_rms_2p5D
     QUANTITY: AEROSOL VOLUME FRACTION
     Species ID: SOOT
     Coordinates (X,Y,Z):   0.615E-01  -0.200E-03   0.380E+00
     TEMPORAL STATISTIC: RMS
 339 ID: soot_rms_2p5D
     QUANTITY: AEROSOL VOLUME FRACTION
     Species ID: SOOT
     Coordinates (X,Y,Z):   0.820E-01  -0.200E-03   0.380E+00
     TEMPORAL STATISTIC: RMS
 340 ID: soot_rms_2p5D
     QUANTITY: AEROSOL VOLUME FRACTION
     Species ID: SOOT
     Coordinates (X,Y,Z):   0.103E+00  -0.200E-03   0.380E+00
     TEMPORAL STATISTIC: RMS
 341 ID: soot_rms_2p5D
     QUANTITY: AEROSOL VOLUME FRACTION
     Species ID: SOOT
     Coordinates (X,Y,Z):   0.123E+00   0.000E+00   0.380E+00
     TEMPORAL STATISTIC: RMS
 342 ID: soot_rms_2p5D
     QUANTITY: AEROSOL VOLUME FRACTION
     Species ID: SOOT
     Coordinates (X,Y,Z):   0.143E+00   0.000E+00   0.380E+00
     TEMPORAL STATISTIC: RMS
 343 ID: soot_rms_2p5D
     QUANTITY: AEROSOL VOLUME FRACTION
     Species ID: SOOT
     Coordinates (X,Y,Z):   0.164E+00   0.000E+00   0.380E+00
     TEMPORAL STATISTIC: RMS
 344 ID: soot_rms_2p5D
     QUANTITY: AEROSOL VOLUME FRACTION
     Species ID: SOOT
     Coordinates (X,Y,Z):   0.184E+00   0.000E+00   0.380E+00
     TEMPORAL STATISTIC: RMS
 345 ID: soot_rms_2p5D
     QUANTITY: AEROSOL VOLUME FRACTION
     Species ID: SOOT
     Coordinates (X,Y,Z):   0.205E+00   0.000E+00   0.380E+00
     TEMPORAL STATISTIC: RMS
 346 ID: soot_rms_3p5D
     QUANTITY: AEROSOL VOLUME FRACTION
     Species ID: SOOT
     Coordinates (X,Y,Z):  -0.205E+00   0.000E+00   0.532E+00
     TEMPORAL STATISTIC: RMS
 347 ID: soot_rms_3p5D
     QUANTITY: AEROSOL VOLUME FRACTION
     Species ID: SOOT
     Coordinates (X,Y,Z):  -0.184E+00   0.000E+00   0.532E+00
     TEMPORAL STATISTIC: RMS
 348 ID: soot_rms_3p5D
     QUANTITY: AEROSOL VOLUME FRACTION
     Species ID: SOOT
     Coordinates (X,Y,Z):  -0.164E+00   0.000E+00   0.532E+00
     TEMPORAL STATISTIC: RMS
 349 ID: soot_rms_3p5D
     QUANTITY: AEROSOL VOLUME FRACTION
     Species ID: SOOT
     Coordinates (X,Y,Z):  -0.143E+00   0.000E+00   0.532E+00
     TEMPORAL STATISTIC: RMS
 350 ID: soot_rms_3p5D
     QUANTITY: AEROSOL VOLUME FRACTION
     Species ID: SOOT
     Coordinates (X,Y,Z):  -0.123E+00   0.000E+00   0.532E+00
     TEMPORAL STATISTIC: RMS
 351 ID: soot_rms_3p5D
     QUANTITY: AEROSOL VOLUME FRACTION
     Species ID: SOOT
     Coordinates (X,Y,Z):  -0.102E+00  -0.200E-03   0.532E+00
     TEMPORAL STATISTIC: RMS
 352 ID: soot_rms_3p5D
     QUANTITY: AEROSOL VOLUME FRACTION
     Species ID: SOOT
     Coordinates (X,Y,Z):  -0.820E-01  -0.200E-03   0.532E+00
     TEMPORAL STATISTIC: RMS
 353 ID: soot_rms_3p5D
     QUANTITY: AEROSOL VOLUME FRACTION
     Species ID: SOOT
     Coordinates (X,Y,Z):  -0.615E-01  -0.200E-03   0.532E+00
     TEMPORAL STATISTIC: RMS
 354 ID: soot_rms_3p5D
     QUANTITY: AEROSOL VOLUME FRACTION
     Species ID: SOOT
     Coordinates (X,Y,Z):  -0.410E-01  -0.200E-03   0.532E+00
     TEMPORAL STATISTIC: RMS
 355 ID: soot_rms_3p5D
     QUANTITY: AEROSOL VOLUME FRACTION
     Species ID: SOOT
     Coordinates (X,Y,Z):  -0.205E-01  -0.200E-03   0.532E+00
     TEMPORAL STATISTIC: RMS
 356 ID: soot_rms_3p5D
     QUANTITY: AEROSOL VOLUME FRACTION
     Species ID: SOOT
     Coordinates (X,Y,Z):  -0.200E-03  -0.200E-03   0.532E+00
     TEMPORAL STATISTIC: RMS
 357 ID: soot_rms_3p5D
     QUANTITY: AEROSOL VOLUME FRACTION
     Species ID: SOOT
     Coordinates (X,Y,Z):   0.205E-01  -0.200E-03   0.532E+00
     TEMPORAL STATISTIC: RMS
 358 ID: soot_rms_3p5D
     QUANTITY: AEROSOL VOLUME FRACTION
     Species ID: SOOT
     Coordinates (X,Y,Z):   0.410E-01  -0.200E-03   0.532E+00
     TEMPORAL STATISTIC: RMS
 359 ID: soot_rms_3p5D
     QUANTITY: AEROSOL VOLUME FRACTION
     Species ID: SOOT
     Coordinates (X,Y,Z):   0.615E-01  -0.200E-03   0.532E+00
     TEMPORAL STATISTIC: RMS
 360 ID: soot_rms_3p5D
     QUANTITY: AEROSOL VOLUME FRACTION
     Species ID: SOOT
     Coordinates (X,Y,Z):   0.820E-01  -0.200E-03   0.532E+00
     TEMPORAL STATISTIC: RMS
 361 ID: soot_rms_3p5D
     QUANTITY: AEROSOL VOLUME FRACTION
     Species ID: SOOT
     Coordinates (X,Y,Z):   0.103E+00  -0.200E-03   0.532E+00
     TEMPORAL STATISTIC: RMS
 362 ID: soot_rms_3p5D
     QUANTITY: AEROSOL VOLUME FRACTION
     Species ID: SOOT
     Coordinates (X,Y,Z):   0.123E+00   0.000E+00   0.532E+00
     TEMPORAL STATISTIC: RMS
 363 ID: soot_rms_3p5D
     QUANTITY: AEROSOL VOLUME FRACTION
     Species ID: SOOT
     Coordinates (X,Y,Z):   0.143E+00   0.000E+00   0.532E+00
     TEMPORAL STATISTIC: RMS
 364 ID: soot_rms_3p5D
     QUANTITY: AEROSOL VOLUME FRACTION
     Species ID: SOOT
     Coordinates (X,Y,Z):   0.164E+00   0.000E+00   0.532E+00
     TEMPORAL STATISTIC: RMS
 365 ID: soot_rms_3p5D
     QUANTITY: AEROSOL VOLUME FRACTION
     Species ID: SOOT
     Coordinates (X,Y,Z):   0.184E+00   0.000E+00   0.532E+00
     TEMPORAL STATISTIC: RMS
 366 ID: soot_rms_3p5D
     QUANTITY: AEROSOL VOLUME FRACTION
     Species ID: SOOT
     Coordinates (X,Y,Z):   0.205E+00   0.000E+00   0.532E+00
     TEMPORAL STATISTIC: RMS
 367 ID: soot_x= 0_z=0p5D
     QUANTITY: AEROSOL VOLUME FRACTION
     Species ID: SOOT
     Coordinates (X,Y,Z):  -0.200E-03  -0.200E-03   0.760E-01
     TEMPORAL STATISTIC: TIME AVERAGE
  Property ID: soot_hist
 368 ID: soot_x= 1_z=0p5D
     QUANTITY: AEROSOL VOLUME FRACTION
     Species ID: SOOT
     Coordinates (X,Y,Z):   0.100E-01  -0.200E-03   0.760E-01
     TEMPORAL STATISTIC: TIME AVERAGE
  Property ID: soot_hist
 369 ID: soot_x= 2_z=0p5D
     QUANTITY: AEROSOL VOLUME FRACTION
     Species ID: SOOT
     Coordinates (X,Y,Z):   0.200E-01  -0.200E-03   0.760E-01
     TEMPORAL STATISTIC: TIME AVERAGE
  Property ID: soot_hist
 370 ID: soot_x= 3_z=0p5D
     QUANTITY: AEROSOL VOLUME FRACTION
     Species ID: SOOT
     Coordinates (X,Y,Z):   0.300E-01  -0.200E-03   0.760E-01
     TEMPORAL STATISTIC: TIME AVERAGE
  Property ID: soot_hist
 371 ID: soot_x= 4_z=0p5D
     QUANTITY: AEROSOL VOLUME FRACTION
     Species ID: SOOT
     Coordinates (X,Y,Z):   0.400E-01  -0.200E-03   0.760E-01
     TEMPORAL STATISTIC: TIME AVERAGE
  Property ID: soot_hist
 372 ID: soot_x= 5_z=0p5D
     QUANTITY: AEROSOL VOLUME FRACTION
     Species ID: SOOT
     Coordinates (X,Y,Z):   0.500E-01  -0.200E-03   0.760E-01
     TEMPORAL STATISTIC: TIME AVERAGE
  Property ID: soot_hist
 373 ID: soot_x= 6_z=0p5D
     QUANTITY: AEROSOL VOLUME FRACTION
     Species ID: SOOT
     Coordinates (X,Y,Z):   0.600E-01  -0.200E-03   0.760E-01
     TEMPORAL STATISTIC: TIME AVERAGE
  Property ID: soot_hist
 374 ID: soot_x= 7_z=0p5D
     QUANTITY: AEROSOL VOLUME FRACTION
     Species ID: SOOT
     Coordinates (X,Y,Z):   0.700E-01  -0.200E-03   0.760E-01
     TEMPORAL STATISTIC: TIME AVERAGE
  Property ID: soot_hist
 375 ID: soot_x= 8_z=0p5D
     QUANTITY: AEROSOL VOLUME FRACTION
     Species ID: SOOT
     Coordinates (X,Y,Z):   0.800E-01  -0.200E-03   0.760E-01
     TEMPORAL STATISTIC: TIME AVERAGE
  Property ID: soot_hist
 376 ID: soot_x= 9_z=0p5D
     QUANTITY: AEROSOL VOLUME FRACTION
     Species ID: SOOT
     Coordinates (X,Y,Z):   0.900E-01  -0.200E-03   0.760E-01
     TEMPORAL STATISTIC: TIME AVERAGE
  Property ID: soot_hist
 377 ID: soot_x=10_z=0p5D
     QUANTITY: AEROSOL VOLUME FRACTION
     Species ID: SOOT
     Coordinates (X,Y,Z):   0.100E+00  -0.200E-03   0.760E-01
     TEMPORAL STATISTIC: TIME AVERAGE
  Property ID: soot_hist
 378 ID: soot_x=11_z=0p5D
     QUANTITY: AEROSOL VOLUME FRACTION
     Species ID: SOOT
     Coordinates (X,Y,Z):   0.110E+00  -0.200E-03   0.760E-01
     TEMPORAL STATISTIC: TIME AVERAGE
  Property ID: soot_hist
 379 ID: soot_x=12_z=0p5D
     QUANTITY: AEROSOL VOLUME FRACTION
     Species ID: SOOT
     Coordinates (X,Y,Z):   0.120E+00   0.000E+00   0.760E-01
     TEMPORAL STATISTIC: TIME AVERAGE
  Property ID: soot_hist
 380 ID: soot_x=13_z=0p5D
     QUANTITY: AEROSOL VOLUME FRACTION
     Species ID: SOOT
     Coordinates (X,Y,Z):   0.130E+00   0.000E+00   0.760E-01
     TEMPORAL STATISTIC: TIME AVERAGE
  Property ID: soot_hist
 381 ID: soot_x=14_z=0p5D
     QUANTITY: AEROSOL VOLUME FRACTION
     Species ID: SOOT
     Coordinates (X,Y,Z):   0.140E+00   0.000E+00   0.760E-01
     TEMPORAL STATISTIC: TIME AVERAGE
  Property ID: soot_hist
 382 ID: soot_x=15_z=0p5D
     QUANTITY: AEROSOL VOLUME FRACTION
     Species ID: SOOT
     Coordinates (X,Y,Z):   0.150E+00   0.000E+00   0.760E-01
     TEMPORAL STATISTIC: TIME AVERAGE
  Property ID: soot_hist
 383 ID: soot_x= 0_z=1p0D
     QUANTITY: AEROSOL VOLUME FRACTION
     Species ID: SOOT
     Coordinates (X,Y,Z):  -0.200E-03  -0.200E-03   0.152E+00
     TEMPORAL STATISTIC: TIME AVERAGE
  Property ID: soot_hist
 384 ID: soot_x= 1_z=1p0D
     QUANTITY: AEROSOL VOLUME FRACTION
     Species ID: SOOT
     Coordinates (X,Y,Z):   0.100E-01  -0.200E-03   0.152E+00
     TEMPORAL STATISTIC: TIME AVERAGE
  Property ID: soot_hist
 385 ID: soot_x= 2_z=1p0D
     QUANTITY: AEROSOL VOLUME FRACTION
     Species ID: SOOT
     Coordinates (X,Y,Z):   0.200E-01  -0.200E-03   0.152E+00
     TEMPORAL STATISTIC: TIME AVERAGE
  Property ID: soot_hist
 386 ID: soot_x= 3_z=1p0D
     QUANTITY: AEROSOL VOLUME FRACTION
     Species ID: SOOT
     Coordinates (X,Y,Z):   0.300E-01  -0.200E-03   0.152E+00
     TEMPORAL STATISTIC: TIME AVERAGE
  Property ID: soot_hist
 387 ID: soot_x= 4_z=1p0D
     QUANTITY: AEROSOL VOLUME FRACTION
     Species ID: SOOT
     Coordinates (X,Y,Z):   0.400E-01  -0.200E-03   0.152E+00
     TEMPORAL STATISTIC: TIME AVERAGE
  Property ID: soot_hist
 388 ID: soot_x= 5_z=1p0D
     QUANTITY: AEROSOL VOLUME FRACTION
     Species ID: SOOT
     Coordinates (X,Y,Z):   0.500E-01  -0.200E-03   0.152E+00
     TEMPORAL STATISTIC: TIME AVERAGE
  Property ID: soot_hist
 389 ID: soot_x= 6_z=1p0D
     QUANTITY: AEROSOL VOLUME FRACTION
     Species ID: SOOT
     Coordinates (X,Y,Z):   0.600E-01  -0.200E-03   0.152E+00
     TEMPORAL STATISTIC: TIME AVERAGE
  Property ID: soot_hist
 390 ID: soot_x= 7_z=1p0D
     QUANTITY: AEROSOL VOLUME FRACTION
     Species ID: SOOT
     Coordinates (X,Y,Z):   0.700E-01  -0.200E-03   0.152E+00
     TEMPORAL STATISTIC: TIME AVERAGE
  Property ID: soot_hist
 391 ID: soot_x= 8_z=1p0D
     QUANTITY: AEROSOL VOLUME FRACTION
     Species ID: SOOT
     Coordinates (X,Y,Z):   0.800E-01  -0.200E-03   0.152E+00
     TEMPORAL STATISTIC: TIME AVERAGE
  Property ID: soot_hist
 392 ID: soot_x= 9_z=1p0D
     QUANTITY: AEROSOL VOLUME FRACTION
     Species ID: SOOT
     Coordinates (X,Y,Z):   0.900E-01  -0.200E-03   0.152E+00
     TEMPORAL STATISTIC: TIME AVERAGE
  Property ID: soot_hist
 393 ID: soot_x=10_z=1p0D
     QUANTITY: AEROSOL VOLUME FRACTION
     Species ID: SOOT
     Coordinates (X,Y,Z):   0.100E+00  -0.200E-03   0.152E+00
     TEMPORAL STATISTIC: TIME AVERAGE
  Property ID: soot_hist
 394 ID: soot_x=11_z=1p0D
     QUANTITY: AEROSOL VOLUME FRACTION
     Species ID: SOOT
     Coordinates (X,Y,Z):   0.110E+00  -0.200E-03   0.152E+00
     TEMPORAL STATISTIC: TIME AVERAGE
  Property ID: soot_hist
 395 ID: soot_x=12_z=1p0D
     QUANTITY: AEROSOL VOLUME FRACTION
     Species ID: SOOT
     Coordinates (X,Y,Z):   0.120E+00   0.000E+00   0.152E+00
     TEMPORAL STATISTIC: TIME AVERAGE
  Property ID: soot_hist
 396 ID: soot_x=13_z=1p0D
     QUANTITY: AEROSOL VOLUME FRACTION
     Species ID: SOOT
     Coordinates (X,Y,Z):   0.130E+00   0.000E+00   0.152E+00
     TEMPORAL STATISTIC: TIME AVERAGE
  Property ID: soot_hist
 397 ID: soot_x=14_z=1p0D
     QUANTITY: AEROSOL VOLUME FRACTION
     Species ID: SOOT
     Coordinates (X,Y,Z):   0.140E+00   0.000E+00   0.152E+00
     TEMPORAL STATISTIC: TIME AVERAGE
  Property ID: soot_hist
 398 ID: soot_x=15_z=1p0D
     QUANTITY: AEROSOL VOLUME FRACTION
     Species ID: SOOT
     Coordinates (X,Y,Z):   0.150E+00   0.000E+00   0.152E+00
     TEMPORAL STATISTIC: TIME AVERAGE
  Property ID: soot_hist
 399 ID: soot_x= 0_z=1p5D
     QUANTITY: AEROSOL VOLUME FRACTION
     Species ID: SOOT
     Coordinates (X,Y,Z):  -0.200E-03  -0.200E-03   0.228E+00
     TEMPORAL STATISTIC: TIME AVERAGE
  Property ID: soot_hist
 400 ID: soot_x= 1_z=1p5D
     QUANTITY: AEROSOL VOLUME FRACTION
     Species ID: SOOT
     Coordinates (X,Y,Z):   0.100E-01  -0.200E-03   0.228E+00
     TEMPORAL STATISTIC: TIME AVERAGE
  Property ID: soot_hist
 401 ID: soot_x= 2_z=1p5D
     QUANTITY: AEROSOL VOLUME FRACTION
     Species ID: SOOT
     Coordinates (X,Y,Z):   0.200E-01  -0.200E-03   0.228E+00
     TEMPORAL STATISTIC: TIME AVERAGE
  Property ID: soot_hist
 402 ID: soot_x= 3_z=1p5D
     QUANTITY: AEROSOL VOLUME FRACTION
     Species ID: SOOT
     Coordinates (X,Y,Z):   0.300E-01  -0.200E-03   0.228E+00
     TEMPORAL STATISTIC: TIME AVERAGE
  Property ID: soot_hist
 403 ID: soot_x= 4_z=1p5D
     QUANTITY: AEROSOL VOLUME FRACTION
     Species ID: SOOT
     Coordinates (X,Y,Z):   0.400E-01  -0.200E-03   0.228E+00
     TEMPORAL STATISTIC: TIME AVERAGE
  Property ID: soot_hist
 404 ID: soot_x= 5_z=1p5D
     QUANTITY: AEROSOL VOLUME FRACTION
     Species ID: SOOT
     Coordinates (X,Y,Z):   0.500E-01  -0.200E-03   0.228E+00
     TEMPORAL STATISTIC: TIME AVERAGE
  Property ID: soot_hist
 405 ID: soot_x= 6_z=1p5D
     QUANTITY: AEROSOL VOLUME FRACTION
     Species ID: SOOT
     Coordinates (X,Y,Z):   0.600E-01  -0.200E-03   0.228E+00
     TEMPORAL STATISTIC: TIME AVERAGE
  Property ID: soot_hist
 406 ID: soot_x= 7_z=1p5D
     QUANTITY: AEROSOL VOLUME FRACTION
     Species ID: SOOT
     Coordinates (X,Y,Z):   0.700E-01  -0.200E-03   0.228E+00
     TEMPORAL STATISTIC: TIME AVERAGE
  Property ID: soot_hist
 407 ID: soot_x= 8_z=1p5D
     QUANTITY: AEROSOL VOLUME FRACTION
     Species ID: SOOT
     Coordinates (X,Y,Z):   0.800E-01  -0.200E-03   0.228E+00
     TEMPORAL STATISTIC: TIME AVERAGE
  Property ID: soot_hist
 408 ID: soot_x= 9_z=1p5D
     QUANTITY: AEROSOL VOLUME FRACTION
     Species ID: SOOT
     Coordinates (X,Y,Z):   0.900E-01  -0.200E-03   0.228E+00
     TEMPORAL STATISTIC: TIME AVERAGE
  Property ID: soot_hist
 409 ID: soot_x=10_z=1p5D
     QUANTITY: AEROSOL VOLUME FRACTION
     Species ID: SOOT
     Coordinates (X,Y,Z):   0.100E+00  -0.200E-03   0.228E+00
     TEMPORAL STATISTIC: TIME AVERAGE
  Property ID: soot_hist
 410 ID: soot_x=11_z=1p5D
     QUANTITY: AEROSOL VOLUME FRACTION
     Species ID: SOOT
     Coordinates (X,Y,Z):   0.110E+00  -0.200E-03   0.228E+00
     TEMPORAL STATISTIC: TIME AVERAGE
  Property ID: soot_hist
 411 ID: soot_x=12_z=1p5D
     QUANTITY: AEROSOL VOLUME FRACTION
     Species ID: SOOT
     Coordinates (X,Y,Z):   0.120E+00   0.000E+00   0.228E+00
     TEMPORAL STATISTIC: TIME AVERAGE
  Property ID: soot_hist
 412 ID: soot_x=13_z=1p5D
     QUANTITY: AEROSOL VOLUME FRACTION
     Species ID: SOOT
     Coordinates (X,Y,Z):   0.130E+00   0.000E+00   0.228E+00
     TEMPORAL STATISTIC: TIME AVERAGE
  Property ID: soot_hist
 413 ID: soot_x=14_z=1p5D
     QUANTITY: AEROSOL VOLUME FRACTION
     Species ID: SOOT
     Coordinates (X,Y,Z):   0.140E+00   0.000E+00   0.228E+00
     TEMPORAL STATISTIC: TIME AVERAGE
  Property ID: soot_hist
 414 ID: soot_x=15_z=1p5D
     QUANTITY: AEROSOL VOLUME FRACTION
     Species ID: SOOT
     Coordinates (X,Y,Z):   0.150E+00   0.000E+00   0.228E+00
     TEMPORAL STATISTIC: TIME AVERAGE
  Property ID: soot_hist
 415 ID: soot_x= 0_z=2p5D
     QUANTITY: AEROSOL VOLUME FRACTION
     Species ID: SOOT
     Coordinates (X,Y,Z):  -0.200E-03  -0.200E-03   0.380E+00
     TEMPORAL STATISTIC: TIME AVERAGE
  Property ID: soot_hist
 416 ID: soot_x= 1_z=2p5D
     QUANTITY: AEROSOL VOLUME FRACTION
     Species ID: SOOT
     Coordinates (X,Y,Z):   0.100E-01  -0.200E-03   0.380E+00
     TEMPORAL STATISTIC: TIME AVERAGE
  Property ID: soot_hist
 417 ID: soot_x= 2_z=2p5D
     QUANTITY: AEROSOL VOLUME FRACTION
     Species ID: SOOT
     Coordinates (X,Y,Z):   0.200E-01  -0.200E-03   0.380E+00
     TEMPORAL STATISTIC: TIME AVERAGE
  Property ID: soot_hist
 418 ID: soot_x= 3_z=2p5D
     QUANTITY: AEROSOL VOLUME FRACTION
     Species ID: SOOT
     Coordinates (X,Y,Z):   0.300E-01  -0.200E-03   0.380E+00
     TEMPORAL STATISTIC: TIME AVERAGE
  Property ID: soot_hist
 419 ID: soot_x= 4_z=2p5D
     QUANTITY: AEROSOL VOLUME FRACTION
     Species ID: SOOT
     Coordinates (X,Y,Z):   0.400E-01  -0.200E-03   0.380E+00
     TEMPORAL STATISTIC: TIME AVERAGE
  Property ID: soot_hist
 420 ID: soot_x= 5_z=2p5D
     QUANTITY: AEROSOL VOLUME FRACTION
     Species ID: SOOT
     Coordinates (X,Y,Z):   0.500E-01  -0.200E-03   0.380E+00
     TEMPORAL STATISTIC: TIME AVERAGE
  Property ID: soot_hist
 421 ID: soot_x= 6_z=2p5D
     QUANTITY: AEROSOL VOLUME FRACTION
     Species ID: SOOT
     Coordinates (X,Y,Z):   0.600E-01  -0.200E-03   0.380E+00
     TEMPORAL STATISTIC: TIME AVERAGE
  Property ID: soot_hist
 422 ID: soot_x= 7_z=2p5D
     QUANTITY: AEROSOL VOLUME FRACTION
     Species ID: SOOT
     Coordinates (X,Y,Z):   0.700E-01  -0.200E-03   0.380E+00
     TEMPORAL STATISTIC: TIME AVERAGE
  Property ID: soot_hist
 423 ID: soot_x= 8_z=2p5D
     QUANTITY: AEROSOL VOLUME FRACTION
     Species ID: SOOT
     Coordinates (X,Y,Z):   0.800E-01  -0.200E-03   0.380E+00
     TEMPORAL STATISTIC: TIME AVERAGE
  Property ID: soot_hist
 424 ID: soot_x= 9_z=2p5D
     QUANTITY: AEROSOL VOLUME FRACTION
     Species ID: SOOT
     Coordinates (X,Y,Z):   0.900E-01  -0.200E-03   0.380E+00
     TEMPORAL STATISTIC: TIME AVERAGE
  Property ID: soot_hist
 425 ID: soot_x=10_z=2p5D
     QUANTITY: AEROSOL VOLUME FRACTION
     Species ID: SOOT
     Coordinates (X,Y,Z):   0.100E+00  -0.200E-03   0.380E+00
     TEMPORAL STATISTIC: TIME AVERAGE
  Property ID: soot_hist
 426 ID: soot_x=11_z=2p5D
     QUANTITY: AEROSOL VOLUME FRACTION
     Species ID: SOOT
     Coordinates (X,Y,Z):   0.110E+00  -0.200E-03   0.380E+00
     TEMPORAL STATISTIC: TIME AVERAGE
  Property ID: soot_hist
 427 ID: soot_x=12_z=2p5D
     QUANTITY: AEROSOL VOLUME FRACTION
     Species ID: SOOT
     Coordinates (X,Y,Z):   0.120E+00   0.000E+00   0.380E+00
     TEMPORAL STATISTIC: TIME AVERAGE
  Property ID: soot_hist
 428 ID: soot_x=13_z=2p5D
     QUANTITY: AEROSOL VOLUME FRACTION
     Species ID: SOOT
     Coordinates (X,Y,Z):   0.130E+00   0.000E+00   0.380E+00
     TEMPORAL STATISTIC: TIME AVERAGE
  Property ID: soot_hist
 429 ID: soot_x=14_z=2p5D
     QUANTITY: AEROSOL VOLUME FRACTION
     Species ID: SOOT
     Coordinates (X,Y,Z):   0.140E+00   0.000E+00   0.380E+00
     TEMPORAL STATISTIC: TIME AVERAGE
  Property ID: soot_hist
 430 ID: soot_x=15_z=2p5D
     QUANTITY: AEROSOL VOLUME FRACTION
     Species ID: SOOT
     Coordinates (X,Y,Z):   0.150E+00   0.000E+00   0.380E+00
     TEMPORAL STATISTIC: TIME AVERAGE
  Property ID: soot_hist
 431 ID: soot_x= 0_z=3p5D
     QUANTITY: AEROSOL VOLUME FRACTION
     Species ID: SOOT
     Coordinates (X,Y,Z):  -0.200E-03  -0.200E-03   0.532E+00
     TEMPORAL STATISTIC: TIME AVERAGE
  Property ID: soot_hist
 432 ID: soot_x= 1_z=3p5D
     QUANTITY: AEROSOL VOLUME FRACTION
     Species ID: SOOT
     Coordinates (X,Y,Z):   0.100E-01  -0.200E-03   0.532E+00
     TEMPORAL STATISTIC: TIME AVERAGE
  Property ID: soot_hist
 433 ID: soot_x= 2_z=3p5D
     QUANTITY: AEROSOL VOLUME FRACTION
     Species ID: SOOT
     Coordinates (X,Y,Z):   0.200E-01  -0.200E-03   0.532E+00
     TEMPORAL STATISTIC: TIME AVERAGE
  Property ID: soot_hist
 434 ID: soot_x= 3_z=3p5D
     QUANTITY: AEROSOL VOLUME FRACTION
     Species ID: SOOT
     Coordinates (X,Y,Z):   0.300E-01  -0.200E-03   0.532E+00
     TEMPORAL STATISTIC: TIME AVERAGE
  Property ID: soot_hist
 435 ID: soot_x= 4_z=3p5D
     QUANTITY: AEROSOL VOLUME FRACTION
     Species ID: SOOT
     Coordinates (X,Y,Z):   0.400E-01  -0.200E-03   0.532E+00
     TEMPORAL STATISTIC: TIME AVERAGE
  Property ID: soot_hist
 436 ID: soot_x= 5_z=3p5D
     QUANTITY: AEROSOL VOLUME FRACTION
     Species ID: SOOT
     Coordinates (X,Y,Z):   0.500E-01  -0.200E-03   0.532E+00
     TEMPORAL STATISTIC: TIME AVERAGE
  Property ID: soot_hist
 437 ID: soot_x= 6_z=3p5D
     QUANTITY: AEROSOL VOLUME FRACTION
     Species ID: SOOT
     Coordinates (X,Y,Z):   0.600E-01  -0.200E-03   0.532E+00
     TEMPORAL STATISTIC: TIME AVERAGE
  Property ID: soot_hist
 438 ID: soot_x= 7_z=3p5D
     QUANTITY: AEROSOL VOLUME FRACTION
     Species ID: SOOT
     Coordinates (X,Y,Z):   0.700E-01  -0.200E-03   0.532E+00
     TEMPORAL STATISTIC: TIME AVERAGE
  Property ID: soot_hist
 439 ID: soot_x= 8_z=3p5D
     QUANTITY: AEROSOL VOLUME FRACTION
     Species ID: SOOT
     Coordinates (X,Y,Z):   0.800E-01  -0.200E-03   0.532E+00
     TEMPORAL STATISTIC: TIME AVERAGE
  Property ID: soot_hist
 440 ID: soot_x= 9_z=3p5D
     QUANTITY: AEROSOL VOLUME FRACTION
     Species ID: SOOT
     Coordinates (X,Y,Z):   0.900E-01  -0.200E-03   0.532E+00
     TEMPORAL STATISTIC: TIME AVERAGE
  Property ID: soot_hist
 441 ID: soot_x=10_z=3p5D
     QUANTITY: AEROSOL VOLUME FRACTION
     Species ID: SOOT
     Coordinates (X,Y,Z):   0.100E+00  -0.200E-03   0.532E+00
     TEMPORAL STATISTIC: TIME AVERAGE
  Property ID: soot_hist
 442 ID: soot_x=11_z=3p5D
     QUANTITY: AEROSOL VOLUME FRACTION
     Species ID: SOOT
     Coordinates (X,Y,Z):   0.110E+00  -0.200E-03   0.532E+00
     TEMPORAL STATISTIC: TIME AVERAGE
  Property ID: soot_hist
 443 ID: soot_x=12_z=3p5D
     QUANTITY: AEROSOL VOLUME FRACTION
     Species ID: SOOT
     Coordinates (X,Y,Z):   0.120E+00   0.000E+00   0.532E+00
     TEMPORAL STATISTIC: TIME AVERAGE
  Property ID: soot_hist
 444 ID: soot_x=13_z=3p5D
     QUANTITY: AEROSOL VOLUME FRACTION
     Species ID: SOOT
     Coordinates (X,Y,Z):   0.130E+00   0.000E+00   0.532E+00
     TEMPORAL STATISTIC: TIME AVERAGE
  Property ID: soot_hist
 445 ID: soot_x=14_z=3p5D
     QUANTITY: AEROSOL VOLUME FRACTION
     Species ID: SOOT
     Coordinates (X,Y,Z):   0.140E+00   0.000E+00   0.532E+00
     TEMPORAL STATISTIC: TIME AVERAGE
  Property ID: soot_hist
 446 ID: soot_x=15_z=3p5D
     QUANTITY: AEROSOL VOLUME FRACTION
     Species ID: SOOT
     Coordinates (X,Y,Z):   0.150E+00   0.000E+00   0.532E+00
     TEMPORAL STATISTIC: TIME AVERAGE
  Property ID: soot_hist


 Radiation Model Information

   Number of control angles  104
   Time step increment         3
   Angle increment             5
   Theta band N_phi   Solid angle
     1:        4     0.120
     2:       12     0.114
     3:       16     0.127
     4:       20     0.120
     5:       20     0.120
     6:       16     0.127
     7:       12     0.114
     8:        4     0.120
   Using gray gas absorption.
   Mean beam length  1.000E-01 m



 Run Time Diagnostics

 Time Step:      1, Simulation Time:      0.02 s, Step Size: 0.01668 s
 Time Step:      2, Simulation Time:      0.04 s, Step Size: 0.01835 s
 Time Step:      3, Simulation Time:      0.06 s, Step Size: 0.02019 s
 Time Step:      4, Simulation Time:      0.08 s, Step Size: 0.02221 s
 Time Step:      5, Simulation Time:      0.10 s, Step Size: 0.02443 s
 Time Step:      6, Simulation Time:      0.13 s, Step Size: 0.02687 s
 Time Step:      7, Simulation Time:      0.16 s, Step Size: 0.02825 s
 Time Step:      8, Simulation Time:      0.19 s, Step Size: 0.02825 s
 Time Step:      9, Simulation Time:      0.21 s, Step Size: 0.02825 s
 Time Step:     10, Simulation Time:      0.24 s, Step Size: 0.02825 s
 Time Step:     20, Simulation Time:      0.37 s, Step Size: 0.00895 s
 Time Step:     30, Simulation Time:      0.44 s, Step Size: 0.00522 s
 Time Step:     40, Simulation Time:      0.48 s, Step Size: 0.00358 s
 Time Step:     50, Simulation Time:      0.51 s, Step Size: 0.00317 s
 Time Step:     60, Simulation Time:      0.55 s, Step Size: 0.00349 s
 Time Step:     70, Simulation Time:      0.58 s, Step Size: 0.00384 s
 Time Step:     80, Simulation Time:      0.62 s, Step Size: 0.00268 s
 Time Step:     90, Simulation Time:      0.64 s, Step Size: 0.00241 s
 Time Step:    100, Simulation Time:      0.67 s, Step Size: 0.00241 s
 Time Step:    200, Simulation Time:      0.89 s, Step Size: 0.00189 s
 Time Step:    300, Simulation Time:      1.10 s, Step Size: 0.00249 s
 Time Step:    400, Simulation Time:      1.32 s, Step Size: 0.00221 s
 Time Step:    500, Simulation Time:      1.52 s, Step Size: 0.00221 s
 Time Step:    600, Simulation Time:      1.72 s, Step Size: 0.00198 s
 Time Step:    700, Simulation Time:      1.92 s, Step Size: 0.00194 s
 Time Step:    800, Simulation Time:      2.12 s, Step Size: 0.00191 s
 Time Step:    900, Simulation Time:      2.32 s, Step Size: 0.00210 s
 Time Step:   1000, Simulation Time:      2.53 s, Step Size: 0.00180 s
 Time Step:   1100, Simulation Time:      2.72 s, Step Size: 0.00172 s
 Time Step:   1200, Simulation Time:      2.92 s, Step Size: 0.00203 s
 Time Step:   1300, Simulation Time:      3.13 s, Step Size: 0.00196 s
 Time Step:   1400, Simulation Time:      3.32 s, Step Size: 0.00208 s
 Time Step:   1500, Simulation Time:      3.52 s, Step Size: 0.00189 s
 Time Step:   1600, Simulation Time:      3.72 s, Step Size: 0.00183 s
 Time Step:   1700, Simulation Time:      3.92 s, Step Size: 0.00201 s
 Time Step:   1800, Simulation Time:      4.12 s, Step Size: 0.00191 s
 Time Step:   1900, Simulation Time:      4.32 s, Step Size: 0.00210 s
 Time Step:   2000, Simulation Time:      4.52 s, Step Size: 0.00188 s
 Time Step:   2100, Simulation Time:      4.72 s, Step Size: 0.00206 s
 Time Step:   2200, Simulation Time:      4.93 s, Step Size: 0.00196 s
 Time Step:   2300, Simulation Time:      5.13 s, Step Size: 0.00215 s
 Time Step:   2400, Simulation Time:      5.33 s, Step Size: 0.00209 s
 Time Step:   2500, Simulation Time:      5.52 s, Step Size: 0.00180 s
 Time Step:   2600, Simulation Time:      5.71 s, Step Size: 0.00191 s
 Time Step:   2700, Simulation Time:      5.91 s, Step Size: 0.00199 s
 Time Step:   2800, Simulation Time:      6.09 s, Step Size: 0.00194 s
 Time Step:   2900, Simulation Time:      6.29 s, Step Size: 0.00176 s
 Time Step:   3000, Simulation Time:      6.49 s, Step Size: 0.00188 s
 Time Step:   3100, Simulation Time:      6.69 s, Step Size: 0.00177 s
 Time Step:   3200, Simulation Time:      6.88 s, Step Size: 0.00214 s
 Time Step:   3300, Simulation Time:      7.08 s, Step Size: 0.00226 s
 Time Step:   3400, Simulation Time:      7.29 s, Step Size: 0.00185 s
 Time Step:   3500, Simulation Time:      7.49 s, Step Size: 0.00204 s
 Time Step:   3600, Simulation Time:      7.69 s, Step Size: 0.00191 s
 Time Step:   3700, Simulation Time:      7.88 s, Step Size: 0.00201 s
 Time Step:   3800, Simulation Time:      8.09 s, Step Size: 0.00215 s
 Time Step:   3900, Simulation Time:      8.30 s, Step Size: 0.00212 s
 Time Step:   4000, Simulation Time:      8.51 s, Step Size: 0.00180 s
 Time Step:   4100, Simulation Time:      8.71 s, Step Size: 0.00205 s
 Time Step:   4200, Simulation Time:      8.91 s, Step Size: 0.00196 s
 Time Step:   4300, Simulation Time:      9.12 s, Step Size: 0.00209 s
 Time Step:   4400, Simulation Time:      9.32 s, Step Size: 0.00206 s
 Time Step:   4500, Simulation Time:      9.54 s, Step Size: 0.00197 s
 Time Step:   4600, Simulation Time:      9.75 s, Step Size: 0.00191 s
 Time Step:   4700, Simulation Time:      9.95 s, Step Size: 0.00204 s
 Time Step:   4800, Simulation Time:     10.16 s, Step Size: 0.00224 s
 Time Step:   4900, Simulation Time:     10.35 s, Step Size: 0.00191 s
 Time Step:   5000, Simulation Time:     10.55 s, Step Size: 0.00204 s
 Time Step:   5100, Simulation Time:     10.76 s, Step Size: 0.00225 s
 Time Step:   5200, Simulation Time:     10.96 s, Step Size: 0.00198 s
 Time Step:   5300, Simulation Time:     11.16 s, Step Size: 0.00198 s
 Time Step:   5400, Simulation Time:     11.36 s, Step Size: 0.00206 s
 Time Step:   5500, Simulation Time:     11.56 s, Step Size: 0.00224 s
 Time Step:   5600, Simulation Time:     11.76 s, Step Size: 0.00224 s
 Time Step:   5700, Simulation Time:     11.96 s, Step Size: 0.00196 s
 Time Step:   5800, Simulation Time:     12.16 s, Step Size: 0.00200 s
 Time Step:   5900, Simulation Time:     12.35 s, Step Size: 0.00196 s
 Time Step:   6000, Simulation Time:     12.54 s, Step Size: 0.00207 s
 Time Step:   6100, Simulation Time:     12.74 s, Step Size: 0.00170 s
 Time Step:   6200, Simulation Time:     12.94 s, Step Size: 0.00186 s
 Time Step:   6300, Simulation Time:     13.13 s, Step Size: 0.00197 s
 Time Step:   6400, Simulation Time:     13.32 s, Step Size: 0.00211 s
 Time Step:   6500, Simulation Time:     13.52 s, Step Size: 0.00204 s
 Time Step:   6600, Simulation Time:     13.71 s, Step Size: 0.00179 s
 Time Step:   6700, Simulation Time:     13.90 s, Step Size: 0.00174 s
 Time Step:   6800, Simulation Time:     14.09 s, Step Size: 0.00232 s
 Time Step:   6900, Simulation Time:     14.29 s, Step Size: 0.00174 s
 Time Step:   7000, Simulation Time:     14.49 s, Step Size: 0.00197 s
 Time Step:   7100, Simulation Time:     14.69 s, Step Size: 0.00196 s
 Time Step:   7200, Simulation Time:     14.89 s, Step Size: 0.00193 s
 Time Step:   7300, Simulation Time:     15.09 s, Step Size: 0.00187 s
 Time Step:   7400, Simulation Time:     15.29 s, Step Size: 0.00205 s
 Time Step:   7500, Simulation Time:     15.50 s, Step Size: 0.00226 s
 Time Step:   7600, Simulation Time:     15.71 s, Step Size: 0.00218 s
 Time Step:   7700, Simulation Time:     15.92 s, Step Size: 0.00207 s
 Time Step:   7800, Simulation Time:     16.12 s, Step Size: 0.00203 s
 Time Step:   7900, Simulation Time:     16.31 s, Step Size: 0.00185 s
 Time Step:   8000, Simulation Time:     16.50 s, Step Size: 0.00182 s
 Time Step:   8100, Simulation Time:     16.69 s, Step Size: 0.00220 s
 Time Step:   8200, Simulation Time:     16.89 s, Step Size: 0.00193 s
 Time Step:   8300, Simulation Time:     17.09 s, Step Size: 0.00205 s
 Time Step:   8400, Simulation Time:     17.30 s, Step Size: 0.00188 s
 Time Step:   8500, Simulation Time:     17.51 s, Step Size: 0.00182 s
 Time Step:   8600, Simulation Time:     17.70 s, Step Size: 0.00201 s
 Time Step:   8700, Simulation Time:     17.90 s, Step Size: 0.00197 s
 Time Step:   8800, Simulation Time:     18.09 s, Step Size: 0.00194 s
 Time Step:   8900, Simulation Time:     18.30 s, Step Size: 0.00206 s
 Time Step:   9000, Simulation Time:     18.50 s, Step Size: 0.00172 s
 Time Step:   9100, Simulation Time:     18.69 s, Step Size: 0.00177 s
 Time Step:   9200, Simulation Time:     18.90 s, Step Size: 0.00209 s
 Time Step:   9300, Simulation Time:     19.09 s, Step Size: 0.00220 s
 Time Step:   9400, Simulation Time:     19.29 s, Step Size: 0.00205 s
 Time Step:   9500, Simulation Time:     19.49 s, Step Size: 0.00169 s
 Time Step:   9600, Simulation Time:     19.69 s, Step Size: 0.00200 s
 Time Step:   9700, Simulation Time:     19.89 s, Step Size: 0.00194 s
 Time Step:   9758, Simulation Time:     20.00 s, Step Size: 0.00178 s


 Time Stepping Wall Clock Time (s):     1848.424
 Total Elapsed Wall Clock Time (s):     1886.386

STOP: FDS completed successfully (CHID: default_fds)
